<?xml version="1.0" encoding="UTF-8"?>

<!-- generated on 2022-06-28 12:07:22 by Eclipse SUMO netconvert Version 1.12.0
<configuration xmlns:xsi="http://www.w3.org/2001/XMLSchema-instance" xsi:noNamespaceSchemaLocation="http://sumo.dlr.de/xsd/netconvertConfiguration.xsd">

    <input>
        <osm-files value="Plaza_Bolognesi.osm"/>
    </input>

    <output>
        <output-file value="red_vial.net.xml"/>
    </output>

    <projection>
        <proj.utm value="true"/>
    </projection>

    <report>
        <aggregate-warnings value="5"/>
    </report>

</configuration>
-->

<net version="1.9" junctionCornerDetail="5" limitTurnSpeed="5.50" xmlns:xsi="http://www.w3.org/2001/XMLSchema-instance" xsi:noNamespaceSchemaLocation="http://sumo.dlr.de/xsd/net_file.xsd">

    <location netOffset="-276615.68,1335592.68" convBoundary="0.00,0.00,2451.57,2825.67" origBoundary="-77.052103,-12.074301,-77.029593,-12.048732" projParameter="+proj=utm +zone=18 +ellps=WGS84 +datum=WGS84 +units=m +no_defs"/>

    <type id="highway.bridleway" priority="1" numLanes="1" speed="2.78" allow="pedestrian" oneway="1" width="2.00"/>
    <type id="highway.bus_guideway" priority="1" numLanes="1" speed="27.78" allow="bus" oneway="1"/>
    <type id="highway.cycleway" priority="1" numLanes="1" speed="8.33" allow="bicycle" oneway="0" width="1.00"/>
    <type id="highway.footway" priority="1" numLanes="1" speed="2.78" allow="pedestrian" oneway="1" width="2.00"/>
    <type id="highway.ford" priority="1" numLanes="1" speed="2.78" allow="army" oneway="0"/>
    <type id="highway.living_street" priority="2" numLanes="1" speed="2.78" disallow="tram rail_urban rail rail_electric rail_fast ship" oneway="0"/>
    <type id="highway.motorway" priority="14" numLanes="2" speed="39.44" allow="private emergency authority army vip passenger hov taxi bus coach delivery truck trailer motorcycle evehicle custom1 custom2" oneway="1"/>
    <type id="highway.motorway_link" priority="9" numLanes="1" speed="22.22" allow="private emergency authority army vip passenger hov taxi bus coach delivery truck trailer motorcycle evehicle custom1 custom2" oneway="1"/>
    <type id="highway.path" priority="1" numLanes="1" speed="2.78" allow="pedestrian bicycle" oneway="0" width="2.00"/>
    <type id="highway.pedestrian" priority="1" numLanes="1" speed="2.78" allow="pedestrian" oneway="1" width="2.00"/>
    <type id="highway.primary" priority="12" numLanes="2" speed="27.78" disallow="tram rail_urban rail rail_electric rail_fast ship" oneway="0"/>
    <type id="highway.primary_link" priority="7" numLanes="1" speed="22.22" disallow="tram rail_urban rail rail_electric rail_fast ship" oneway="0"/>
    <type id="highway.raceway" priority="15" numLanes="2" speed="83.33" allow="vip" oneway="0"/>
    <type id="highway.residential" priority="3" numLanes="1" speed="13.89" disallow="tram rail_urban rail rail_electric rail_fast ship" oneway="0"/>
    <type id="highway.secondary" priority="11" numLanes="1" speed="27.78" disallow="tram rail_urban rail rail_electric rail_fast ship" oneway="0"/>
    <type id="highway.secondary_link" priority="6" numLanes="1" speed="22.22" disallow="tram rail_urban rail rail_electric rail_fast ship" oneway="0"/>
    <type id="highway.service" priority="1" numLanes="1" speed="5.56" allow="pedestrian delivery bicycle" oneway="0"/>
    <type id="highway.stairs" priority="1" numLanes="1" speed="1.39" allow="pedestrian" oneway="1" width="2.00"/>
    <type id="highway.step" priority="1" numLanes="1" speed="1.39" allow="pedestrian" oneway="1" width="2.00"/>
    <type id="highway.steps" priority="1" numLanes="1" speed="1.39" allow="pedestrian" oneway="1" width="2.00"/>
    <type id="highway.tertiary" priority="10" numLanes="1" speed="22.22" disallow="tram rail_urban rail rail_electric rail_fast ship" oneway="0"/>
    <type id="highway.tertiary_link" priority="5" numLanes="1" speed="22.22" disallow="tram rail_urban rail rail_electric rail_fast ship" oneway="0"/>
    <type id="highway.track" priority="1" numLanes="1" speed="5.56" allow="pedestrian motorcycle moped bicycle" oneway="0"/>
    <type id="highway.trunk" priority="13" numLanes="2" speed="27.78" disallow="pedestrian bicycle tram rail_urban rail rail_electric rail_fast ship" oneway="0"/>
    <type id="highway.trunk_link" priority="8" numLanes="1" speed="22.22" disallow="pedestrian bicycle tram rail_urban rail rail_electric rail_fast ship" oneway="0"/>
    <type id="highway.unclassified" priority="4" numLanes="1" speed="13.89" disallow="tram rail_urban rail rail_electric rail_fast ship" oneway="0"/>
    <type id="highway.unsurfaced" priority="1" numLanes="1" speed="8.33" disallow="tram rail_urban rail rail_electric rail_fast ship" oneway="0"/>
    <type id="railway.highspeed" priority="21" numLanes="1" speed="69.44" allow="rail_fast" oneway="1"/>
    <type id="railway.light_rail" priority="19" numLanes="1" speed="27.78" allow="rail_urban" oneway="1"/>
    <type id="railway.preserved" priority="16" numLanes="1" speed="27.78" allow="rail" oneway="1"/>
    <type id="railway.rail" priority="20" numLanes="1" speed="44.44" allow="rail" oneway="1"/>
    <type id="railway.subway" priority="18" numLanes="1" speed="27.78" allow="rail_urban" oneway="1"/>
    <type id="railway.tram" priority="17" numLanes="1" speed="13.89" allow="tram" oneway="1"/>

    <edge id=":107772857_0" function="internal">
        <lane id=":107772857_0_0" index="0" disallow="tram rail_urban rail rail_electric rail_fast ship" speed="6.93" length="10.28" shape="1148.91,1793.09 1145.77,1793.17 1143.45,1794.01 1141.95,1795.62 1141.27,1797.99"/>
        <lane id=":107772857_0_1" index="1" disallow="tram rail_urban rail rail_electric rail_fast ship" speed="8.34" length="15.39" shape="1149.19,1789.90 1144.64,1790.06 1141.28,1791.41 1139.09,1793.95 1138.08,1797.68"/>
    </edge>
    <edge id=":107772857_2" function="internal">
        <lane id=":107772857_2_0" index="0" disallow="tram rail_urban rail rail_electric rail_fast ship" speed="9.72" length="14.19" shape="1149.19,1789.90 1144.70,1789.78 1141.34,1790.09 1138.37,1790.49 1135.04,1790.65"/>
    </edge>
    <edge id=":107772857_3" function="internal">
        <lane id=":107772857_3_0" index="0" disallow="tram rail_urban rail rail_electric rail_fast ship" speed="9.72" length="14.85" shape="1144.12,1783.41 1143.54,1787.78 1142.76,1790.71 1141.94,1793.64 1141.27,1797.99"/>
        <lane id=":107772857_3_1" index="1" disallow="tram rail_urban rail rail_electric rail_fast ship" speed="9.72" length="14.85" shape="1140.93,1783.18 1140.35,1787.52 1139.57,1790.43 1138.75,1793.35 1138.08,1797.68"/>
    </edge>
    <edge id=":107772857_5" function="internal">
        <lane id=":107772857_5_0" index="0" allow="pedestrian bus delivery bicycle" speed="9.72" length="14.39" shape="1138.26,1783.35 1140.31,1787.38 1141.35,1790.36 1141.59,1793.49 1141.27,1797.99"/>
        <lane id=":107772857_5_1" index="1" allow="pedestrian bus delivery bicycle" speed="9.72" length="14.39" shape="1135.43,1784.85 1137.23,1788.38 1138.14,1790.99 1138.37,1793.74 1138.08,1797.68"/>
    </edge>
    <edge id=":107772858_0" function="internal">
        <lane id=":107772858_0_0" index="0" disallow="tram rail_urban rail rail_electric rail_fast ship" speed="6.00" length="7.64" shape="1123.43,1990.60 1123.60,1992.29 1124.52,1993.57 1126.20,1994.44 1128.63,1994.89"/>
    </edge>
    <edge id=":107772858_1" function="internal">
        <lane id=":107772858_1_0" index="0" disallow="tram rail_urban rail rail_electric rail_fast ship" speed="9.72" length="13.83" shape="1123.43,1990.60 1121.98,2004.33"/>
        <lane id=":107772858_1_1" index="1" disallow="tram rail_urban rail rail_electric rail_fast ship" speed="9.72" length="13.83" shape="1120.25,1990.25 1118.80,2004.01"/>
    </edge>
    <edge id=":107772858_3" function="internal">
        <lane id=":107772858_3_0" index="0" disallow="tram rail_urban rail rail_electric rail_fast ship" speed="11.11" length="15.61" shape="1114.22,1993.55 1118.50,1994.48 1121.28,1995.85 1124.06,1997.20 1128.35,1998.08"/>
        <lane id=":107772858_3_1" index="1" disallow="tram rail_urban rail rail_electric rail_fast ship" speed="11.11" length="15.61" shape="1114.22,1993.55 1118.60,1994.99 1121.14,1997.44 1123.68,1999.88 1128.07,2001.27"/>
    </edge>
    <edge id=":107772858_5" function="internal">
        <lane id=":107772858_5_0" index="0" disallow="tram rail_urban rail rail_electric rail_fast ship" speed="7.57" length="12.59" shape="1113.90,1996.73 1117.69,1997.53 1120.30,1999.07 1121.73,2001.34 1121.98,2004.33"/>
        <lane id=":107772858_5_1" index="1" disallow="tram rail_urban rail rail_electric rail_fast ship" speed="5.97" length="7.46" shape="1113.58,1999.92 1116.00,2000.38 1117.68,2001.22 1118.61,2002.43 1118.80,2004.01"/>
    </edge>
    <edge id=":107774936_0" function="internal">
        <lane id=":107774936_0_0" index="0" disallow="tram rail_urban rail rail_electric rail_fast ship" speed="6.48" length="6.23" shape="1132.23,1617.85 1132.00,1615.78 1131.52,1614.19 1130.79,1613.08 1129.82,1612.44"/>
        <lane id=":107774936_0_1" index="1" disallow="tram rail_urban rail rail_electric rail_fast ship" speed="8.04" length="9.98" shape="1135.42,1617.70 1135.02,1614.66 1134.14,1612.27 1132.78,1610.53 1130.92,1609.43"/>
        <lane id=":107774936_0_2" index="2" disallow="tram rail_urban rail rail_electric rail_fast ship" speed="9.35" length="13.74" shape="1138.62,1617.55 1138.05,1613.54 1136.77,1610.35 1134.76,1607.98 1132.03,1606.43"/>
    </edge>
    <edge id=":107774936_3" function="internal">
        <lane id=":107774936_3_0" index="0" disallow="tram rail_urban rail rail_electric rail_fast ship" speed="11.11" length="11.68" shape="1142.32,1614.94 1138.54,1614.54 1135.94,1614.23 1133.41,1613.65 1129.82,1612.44"/>
        <lane id=":107774936_3_1" index="1" disallow="tram rail_urban rail rail_electric rail_fast ship" speed="11.11" length="11.68" shape="1142.70,1611.76 1139.14,1611.39 1136.69,1611.11 1134.30,1610.57 1130.92,1609.43"/>
        <lane id=":107774936_3_2" index="2" disallow="tram rail_urban rail rail_electric rail_fast ship" speed="11.11" length="11.68" shape="1143.08,1608.58 1139.74,1608.24 1137.44,1607.98 1135.20,1607.49 1132.03,1606.43"/>
        <lane id=":107774936_3_3" index="3" disallow="tram rail_urban rail rail_electric rail_fast ship" speed="11.11" length="11.68" shape="1143.45,1605.40 1140.33,1605.09 1138.19,1604.86 1136.09,1604.41 1133.13,1603.43"/>
    </edge>
    <edge id=":107774938_0" function="internal">
        <lane id=":107774938_0_0" index="0" disallow="tram rail_urban rail rail_electric rail_fast ship" speed="10.87" length="10.97" shape="1121.39,1617.20 1120.38,1613.34 1119.36,1610.38 1118.30,1608.35 1117.23,1607.22"/>
        <lane id=":107774938_0_1" index="1" disallow="tram rail_urban rail rail_electric rail_fast ship" speed="11.11" length="13.47" shape="1124.51,1616.48 1123.30,1612.00 1121.96,1608.51 1120.50,1606.01 1118.90,1604.50"/>
        <lane id=":107774938_0_2" index="2" disallow="tram rail_urban rail rail_electric rail_fast ship" speed="11.11" length="15.99" shape="1127.63,1615.76 1126.22,1610.67 1124.57,1606.64 1122.69,1603.67 1120.58,1601.77"/>
    </edge>
    <edge id=":107774938_3" function="internal">
        <lane id=":107774938_3_0" index="0" disallow="tram rail_urban rail rail_electric rail_fast ship" speed="11.11" length="12.52" shape="1129.63,1612.37 1125.84,1611.08 1123.21,1610.25 1120.69,1609.18 1117.23,1607.22"/>
        <lane id=":107774938_3_1" index="1" disallow="tram rail_urban rail rail_electric rail_fast ship" speed="11.11" length="12.52" shape="1130.74,1609.37 1127.12,1608.15 1124.61,1607.36 1122.21,1606.36 1118.90,1604.50"/>
        <lane id=":107774938_3_2" index="2" disallow="tram rail_urban rail rail_electric rail_fast ship" speed="11.11" length="12.52" shape="1131.84,1606.36 1128.40,1605.21 1126.01,1604.48 1123.72,1603.54 1120.58,1601.77"/>
        <lane id=":107774938_3_3" index="3" disallow="tram rail_urban rail rail_electric rail_fast ship" speed="11.11" length="12.52" shape="1132.94,1603.36 1129.68,1602.27 1127.41,1601.59 1125.24,1600.71 1122.26,1599.05"/>
    </edge>
    <edge id=":107774940_0" function="internal">
        <lane id=":107774940_0_0" index="0" disallow="tram rail_urban rail rail_electric rail_fast ship" speed="7.63" length="9.38" shape="1091.89,1581.54 1090.65,1580.19 1088.80,1579.39 1086.35,1579.14 1083.29,1579.44"/>
        <lane id=":107774940_0_1" index="1" disallow="tram rail_urban rail rail_electric rail_fast ship" speed="8.07" length="10.58" shape="1091.89,1581.54 1090.03,1578.87 1088.03,1577.08 1085.87,1576.18 1083.57,1576.14"/>
        <lane id=":107774940_0_2" index="2" disallow="tram rail_urban rail rail_electric rail_fast ship" speed="8.63" length="12.23" shape="1091.89,1581.54 1089.41,1577.56 1087.25,1574.78 1085.39,1573.21 1083.84,1572.85"/>
    </edge>
    <edge id=":107774940_3" function="internal">
        <lane id=":107774940_3_0" index="0" disallow="tram rail_urban rail rail_electric rail_fast ship" speed="11.11" length="11.94" shape="1091.89,1581.54 1090.07,1578.14 1089.07,1575.69 1088.33,1573.13 1087.27,1569.41"/>
        <lane id=":107774940_3_1" index="1" disallow="tram rail_urban rail rail_electric rail_fast ship" speed="11.11" length="11.94" shape="1094.66,1579.95 1092.95,1576.74 1092.02,1574.42 1091.33,1572.00 1090.34,1568.48"/>
        <lane id=":107774940_3_2" index="2" disallow="tram rail_urban rail rail_electric rail_fast ship" speed="11.11" length="11.94" shape="1097.44,1578.36 1095.83,1575.33 1094.97,1573.15 1094.33,1570.87 1093.40,1567.56"/>
        <lane id=":107774940_3_3" index="3" disallow="tram rail_urban rail rail_electric rail_fast ship" speed="11.11" length="11.94" shape="1100.22,1576.77 1098.72,1573.93 1097.92,1571.88 1097.33,1569.74 1096.46,1566.63"/>
    </edge>
    <edge id=":107774945_0" function="internal">
        <lane id=":107774945_0_0" index="0" disallow="tram rail_urban rail rail_electric rail_fast ship" speed="6.62" length="7.27" shape="1117.67,1489.20 1119.08,1490.53 1120.64,1491.26 1122.34,1491.37 1124.18,1490.88"/>
        <lane id=":107774945_0_1" index="1" disallow="tram rail_urban rail rail_electric rail_fast ship" speed="8.13" length="11.39" shape="1115.20,1491.23 1117.40,1493.31 1119.84,1494.43 1122.50,1494.61 1125.40,1493.84"/>
        <lane id=":107774945_0_2" index="2" disallow="tram rail_urban rail rail_electric rail_fast ship" speed="8.84" length="13.58" shape="1115.20,1491.23 1118.27,1494.46 1121.20,1496.47 1123.99,1497.25 1126.62,1496.80"/>
    </edge>
    <edge id=":107774945_3" function="internal">
        <lane id=":107774945_3_0" index="0" disallow="tram rail_urban rail rail_electric rail_fast ship" speed="11.11" length="9.12" shape="1115.36,1495.12 1117.92,1493.74 1119.69,1492.83 1121.50,1492.01 1124.18,1490.88"/>
        <lane id=":107774945_3_1" index="1" disallow="tram rail_urban rail rail_electric rail_fast ship" speed="11.11" length="9.12" shape="1116.98,1497.88 1119.42,1496.56 1121.11,1495.69 1122.84,1494.91 1125.40,1493.84"/>
        <lane id=":107774945_3_2" index="2" disallow="tram rail_urban rail rail_electric rail_fast ship" speed="11.11" length="9.12" shape="1118.61,1500.64 1120.93,1499.38 1122.54,1498.56 1124.19,1497.82 1126.62,1496.80"/>
        <lane id=":107774945_3_3" index="3" disallow="tram rail_urban rail rail_electric rail_fast ship" speed="11.11" length="9.12" shape="1120.23,1503.40 1122.43,1502.21 1123.96,1501.43 1125.53,1500.72 1127.84,1499.76"/>
    </edge>
    <edge id=":107774948_0" function="internal">
        <lane id=":107774948_0_0" index="0" disallow="tram rail_urban rail rail_electric rail_fast ship" speed="6.92" length="8.22" shape="1166.48,1488.06 1168.78,1488.24 1170.72,1487.80 1172.27,1486.75 1173.45,1485.07"/>
        <lane id=":107774948_0_1" index="1" disallow="tram rail_urban rail rail_electric rail_fast ship" speed="7.76" length="10.54" shape="1166.48,1488.06 1170.18,1488.57 1173.06,1488.48 1175.10,1487.79 1176.31,1486.50"/>
        <lane id=":107774948_0_2" index="2" disallow="tram rail_urban rail rail_electric rail_fast ship" speed="8.58" length="13.09" shape="1166.48,1488.06 1171.59,1488.90 1175.40,1489.15 1177.93,1488.83 1179.17,1487.93"/>
        <lane id=":107774948_0_3" index="3" disallow="tram rail_urban rail rail_electric rail_fast ship" speed="9.38" length="15.81" shape="1166.48,1488.06 1172.99,1489.23 1177.75,1489.83 1180.77,1489.87 1182.04,1489.35"/>
    </edge>
    <edge id=":107774948_4" function="internal">
        <lane id=":107774948_4_0" index="0" disallow="tram rail_urban rail rail_electric rail_fast ship" speed="11.11" length="17.14" shape="1166.48,1488.06 1171.67,1489.32 1175.06,1490.74 1178.24,1492.73 1182.78,1495.64"/>
        <lane id=":107774948_4_1" index="1" disallow="tram rail_urban rail rail_electric rail_fast ship" speed="11.11" length="17.14" shape="1165.41,1491.11 1170.41,1492.31 1173.68,1493.67 1176.74,1495.57 1181.11,1498.37"/>
        <lane id=":107774948_4_2" index="2" disallow="tram rail_urban rail rail_electric rail_fast ship" speed="11.11" length="17.14" shape="1164.34,1494.16 1169.14,1495.31 1172.29,1496.61 1175.24,1498.42 1179.45,1501.11"/>
        <lane id=":107774948_4_3" index="3" disallow="tram rail_urban rail rail_electric rail_fast ship" speed="11.11" length="17.14" shape="1163.27,1497.21 1167.88,1498.31 1170.91,1499.54 1173.74,1501.27 1177.78,1503.84"/>
    </edge>
    <edge id=":107774949_0" function="internal">
        <lane id=":107774949_0_0" index="0" disallow="tram rail_urban rail rail_electric rail_fast ship" speed="7.34" length="9.18" shape="1196.39,1497.50 1195.33,1500.16 1195.01,1502.47 1195.43,1504.43 1196.59,1506.04"/>
        <lane id=":107774949_0_1" index="1" disallow="tram rail_urban rail rail_electric rail_fast ship" speed="8.72" length="13.30" shape="1193.53,1496.06 1192.11,1499.76 1191.79,1503.05 1192.55,1505.92 1194.40,1508.37"/>
        <lane id=":107774949_0_2" index="2" disallow="tram rail_urban rail rail_electric rail_fast ship" speed="9.92" length="17.44" shape="1190.67,1494.63 1188.89,1499.36 1188.56,1503.62 1189.66,1507.40 1192.21,1510.70"/>
        <lane id=":107774949_0_3" index="3" disallow="tram rail_urban rail rail_electric rail_fast ship" speed="10.42" length="21.58" shape="1187.81,1493.19 1185.67,1498.96 1185.33,1504.19 1186.78,1508.89 1190.02,1513.04"/>
    </edge>
    <edge id=":107774949_4" function="internal">
        <lane id=":107774949_4_0" index="0" disallow="tram rail_urban rail rail_electric rail_fast ship" speed="11.11" length="16.15" shape="1182.95,1495.75 1187.28,1498.41 1190.17,1500.37 1192.86,1502.59 1196.59,1506.04"/>
        <lane id=":107774949_4_1" index="1" disallow="tram rail_urban rail rail_electric rail_fast ship" speed="11.11" length="16.15" shape="1181.29,1498.48 1185.45,1501.04 1188.23,1502.92 1190.81,1505.06 1194.40,1508.37"/>
        <lane id=":107774949_4_2" index="2" disallow="tram rail_urban rail rail_electric rail_fast ship" speed="11.11" length="16.15" shape="1179.62,1501.21 1183.62,1503.67 1186.28,1505.47 1188.76,1507.52 1192.21,1510.70"/>
        <lane id=":107774949_4_3" index="3" disallow="tram rail_urban rail rail_electric rail_fast ship" speed="11.11" length="16.15" shape="1177.95,1503.94 1181.79,1506.30 1184.34,1508.03 1186.72,1509.99 1190.02,1513.04"/>
    </edge>
    <edge id=":107774952_0" function="internal">
        <lane id=":107774952_0_0" index="0" allow="bus bicycle" speed="12.47" length="14.13" shape="1211.57,1531.56 1213.17,1535.09 1215.40,1536.78 1218.40,1537.89 1222.26,1539.68"/>
        <lane id=":107774952_0_1" index="1" disallow="tram rail_urban rail rail_electric rail_fast ship" speed="12.50" length="14.80" shape="1211.57,1531.56 1212.91,1535.64 1214.51,1538.22 1216.91,1540.19 1220.65,1542.44"/>
        <lane id=":107774952_0_2" index="2" disallow="tram rail_urban rail rail_electric rail_fast ship" speed="12.50" length="16.28" shape="1211.57,1531.56 1212.65,1536.31 1213.55,1539.72 1215.32,1542.47 1219.03,1545.20"/>
        <lane id=":107774952_0_3" index="3" disallow="tram rail_urban rail rail_electric rail_fast ship" speed="12.50" length="18.37" shape="1211.57,1531.56 1212.39,1537.05 1212.53,1541.26 1213.65,1544.73 1217.41,1547.97"/>
        <lane id=":107774952_0_4" index="4" disallow="tram rail_urban rail rail_electric rail_fast ship" speed="12.50" length="20.90" shape="1211.57,1531.56 1212.12,1537.85 1211.47,1542.84 1211.92,1546.97 1215.80,1550.73"/>
    </edge>
    <edge id=":107774952_5" function="internal">
        <lane id=":107774952_5_0" index="0" disallow="tram rail_urban rail rail_electric rail_fast ship" speed="11.11" length="22.44" shape="1211.57,1531.56 1213.31,1538.24 1214.18,1542.90 1214.44,1547.64 1214.40,1554.54"/>
        <lane id=":107774952_5_1" index="1" disallow="tram rail_urban rail rail_electric rail_fast ship" speed="11.11" length="22.44" shape="1208.48,1532.40 1210.18,1538.95 1211.00,1543.52 1211.25,1548.17 1211.19,1554.94"/>
        <lane id=":107774952_5_2" index="2" disallow="tram rail_urban rail rail_electric rail_fast ship" speed="11.11" length="22.44" shape="1205.39,1533.24 1207.04,1539.60 1207.83,1544.04 1208.05,1548.56 1207.99,1555.13"/>
        <lane id=":107774952_5_3" index="3" disallow="tram rail_urban rail rail_electric rail_fast ship" speed="11.11" length="22.44" shape="1202.30,1534.08 1204.15,1540.19 1205.35,1544.49 1205.66,1548.82 1204.81,1555.04"/>
    </edge>
    <edge id=":107774957_0" function="internal">
        <lane id=":107774957_0_0" index="0" disallow="tram rail_urban rail rail_electric rail_fast ship" speed="6.53" length="8.43" shape="1189.60,1608.20 1188.04,1606.53 1186.30,1605.69 1184.36,1605.69 1182.24,1606.53"/>
        <lane id=":107774957_0_1" index="1" disallow="tram rail_urban rail rail_electric rail_fast ship" speed="7.36" length="10.97" shape="1189.60,1608.20 1187.25,1605.37 1184.98,1603.68 1182.78,1603.14 1180.67,1603.75"/>
    </edge>
    <edge id=":107774957_2" function="internal">
        <lane id=":107774957_2_0" index="0" disallow="tram rail_urban rail rail_electric rail_fast ship" speed="11.11" length="9.35" shape="1190.61,1600.76 1188.27,1602.67 1186.61,1603.92 1184.86,1605.03 1182.24,1606.53"/>
        <lane id=":107774957_2_1" index="1" disallow="tram rail_urban rail rail_electric rail_fast ship" speed="11.11" length="9.35" shape="1188.58,1598.29 1186.36,1600.10 1184.80,1601.28 1183.14,1602.32 1180.67,1603.75"/>
        <lane id=":107774957_2_2" index="2" disallow="tram rail_urban rail rail_electric rail_fast ship" speed="11.11" length="9.35" shape="1186.54,1595.82 1184.46,1597.53 1182.98,1598.63 1181.42,1599.62 1179.09,1600.96"/>
        <lane id=":107774957_2_3" index="3" disallow="tram rail_urban rail rail_electric rail_fast ship" speed="11.11" length="9.35" shape="1184.51,1593.35 1182.55,1594.95 1181.16,1595.99 1179.70,1596.92 1177.51,1598.18"/>
    </edge>
    <edge id=":107774958_0" function="internal">
        <lane id=":107774958_0_0" index="0" disallow="tram rail_urban rail rail_electric rail_fast ship" speed="11.09" length="10.41" shape="1167.00,1613.12 1164.42,1614.44 1163.14,1616.07 1162.30,1618.22 1161.04,1621.08"/>
        <lane id=":107774958_0_1" index="1" disallow="tram rail_urban rail rail_electric rail_fast ship" speed="11.11" length="11.34" shape="1167.00,1613.12 1163.82,1614.21 1161.65,1615.21 1159.95,1616.79 1158.22,1619.57"/>
        <lane id=":107774958_0_2" index="2" disallow="tram rail_urban rail rail_electric rail_fast ship" speed="11.11" length="13.25" shape="1167.00,1613.12 1163.09,1613.98 1160.09,1614.28 1157.63,1615.23 1155.40,1618.05"/>
    </edge>
    <edge id=":107774958_3" function="internal">
        <lane id=":107774958_3_0" index="0" disallow="tram rail_urban rail rail_electric rail_fast ship" speed="11.11" length="13.10" shape="1167.00,1613.12 1163.01,1614.31 1160.18,1614.74 1157.28,1614.90 1153.10,1615.27"/>
        <lane id=":107774958_3_1" index="1" disallow="tram rail_urban rail rail_electric rail_fast ship" speed="11.11" length="13.10" shape="1165.95,1610.10 1162.15,1611.22 1159.46,1611.62 1156.70,1611.75 1152.72,1612.10"/>
        <lane id=":107774958_3_2" index="2" disallow="tram rail_urban rail rail_electric rail_fast ship" speed="11.11" length="13.10" shape="1164.91,1607.07 1161.30,1608.13 1158.73,1608.49 1156.12,1608.60 1152.33,1608.92"/>
        <lane id=":107774958_3_3" index="3" disallow="tram rail_urban rail rail_electric rail_fast ship" speed="11.11" length="13.10" shape="1163.86,1604.05 1160.44,1605.04 1158.01,1605.36 1155.53,1605.45 1151.95,1605.74"/>
    </edge>
    <edge id=":108065281_0" function="internal">
        <lane id=":108065281_0_0" index="0" disallow="pedestrian tram rail_urban rail rail_electric rail_fast ship" speed="5.19" length="5.33" shape="1539.03,1573.22 1539.53,1572.59 1539.67,1571.05 1539.64,1569.31 1539.62,1568.08"/>
        <lane id=":108065281_0_1" index="1" disallow="pedestrian tram rail_urban rail rail_electric rail_fast ship" speed="5.83" length="6.98" shape="1539.03,1573.22 1540.55,1572.99 1541.69,1572.10 1542.44,1570.53 1542.81,1568.30"/>
    </edge>
    <edge id=":108065281_2" function="internal">
        <lane id=":108065281_2_0" index="0" disallow="pedestrian tram rail_urban rail rail_electric rail_fast ship" speed="13.89" length="11.19" shape="1539.03,1573.22 1550.04,1573.74"/>
        <lane id=":108065281_2_1" index="1" disallow="pedestrian tram rail_urban rail rail_electric rail_fast ship" speed="13.89" length="11.19" shape="1538.84,1576.42 1549.93,1576.93"/>
        <lane id=":108065281_2_2" index="2" disallow="pedestrian tram rail_urban rail rail_electric rail_fast ship" speed="13.89" length="11.19" shape="1538.64,1579.61 1549.82,1580.13"/>
        <lane id=":108065281_2_3" index="3" disallow="pedestrian tram rail_urban rail rail_electric rail_fast ship" speed="13.89" length="11.19" shape="1538.45,1582.81 1549.71,1583.33"/>
        <lane id=":108065281_2_4" index="4" disallow="pedestrian tram rail_urban rail rail_electric rail_fast ship" speed="13.89" length="11.19" shape="1538.26,1586.00 1549.60,1586.53"/>
    </edge>
    <edge id=":108065281_7" function="internal">
        <lane id=":108065281_7_0" index="0" disallow="pedestrian tram rail_urban rail rail_electric rail_fast ship" speed="11.11" length="21.65" shape="1541.06,1589.49 1542.13,1583.53 1543.61,1579.31 1545.05,1574.94 1546.00,1568.53"/>
        <lane id=":108065281_7_1" index="1" disallow="pedestrian tram rail_urban rail rail_electric rail_fast ship" speed="11.11" length="21.65" shape="1544.25,1589.80 1545.32,1583.83 1546.80,1579.59 1548.24,1575.19 1549.20,1568.76"/>
    </edge>
    <edge id=":108066861_0" function="internal">
        <lane id=":108066861_0_0" index="0" allow="bus bicycle" speed="13.89" length="11.32" shape="1307.39,1581.34 1296.22,1580.25"/>
        <lane id=":108066861_0_1" index="1" disallow="tram rail_urban rail rail_electric rail_fast ship" speed="13.89" length="11.32" shape="1307.72,1578.15 1296.50,1577.06"/>
        <lane id=":108066861_0_2" index="2" disallow="tram rail_urban rail rail_electric rail_fast ship" speed="13.89" length="11.32" shape="1308.06,1574.97 1296.79,1573.88"/>
        <lane id=":108066861_0_3" index="3" disallow="tram rail_urban rail rail_electric rail_fast ship" speed="13.89" length="11.32" shape="1308.39,1571.79 1297.07,1570.69"/>
        <lane id=":108066861_0_4" index="4" disallow="tram rail_urban rail rail_electric rail_fast ship" speed="13.89" length="11.32" shape="1308.73,1568.60 1297.36,1567.50"/>
    </edge>
    <edge id=":108066861_5" function="internal">
        <lane id=":108066861_5_0" index="0" allow="bus bicycle" speed="6.50" length="9.04" shape="1301.27,1586.34 1301.16,1583.86 1300.28,1582.02 1298.63,1580.82 1296.22,1580.25"/>
        <lane id=":108066861_5_1" index="1" disallow="tram rail_urban rail rail_electric rail_fast ship" speed="7.32" length="11.74" shape="1301.27,1586.34 1301.29,1582.47 1300.50,1579.63 1298.90,1577.83 1296.50,1577.06"/>
    </edge>
    <edge id=":108067773_0" function="internal">
        <lane id=":108067773_0_0" index="0" allow="private emergency authority army vip passenger hov taxi bus coach delivery truck trailer motorcycle evehicle custom1 custom2" speed="12.50" length="37.18" shape="1723.48,1565.71 1733.53,1559.02 1740.61,1552.54 1745.23,1545.96 1747.92,1539.00"/>
    </edge>
    <edge id=":108067773_1" function="internal">
        <lane id=":108067773_1_0" index="0" disallow="pedestrian tram rail_urban rail rail_electric rail_fast ship" speed="12.50" length="39.02" shape="1723.48,1565.71 1732.90,1559.10 1738.67,1553.51 1744.59,1548.22 1754.48,1542.48"/>
        <lane id=":108067773_1_1" index="1" disallow="pedestrian tram rail_urban rail rail_electric rail_fast ship" speed="12.50" length="39.02" shape="1725.10,1568.47 1734.53,1561.85 1740.31,1556.27 1746.24,1550.97 1756.14,1545.24"/>
        <lane id=":108067773_1_2" index="2" disallow="pedestrian tram rail_urban rail rail_electric rail_fast ship" speed="12.50" length="39.02" shape="1726.72,1571.23 1736.16,1564.61 1741.95,1559.02 1747.89,1553.73 1757.80,1547.99"/>
        <lane id=":108067773_1_3" index="3" disallow="pedestrian tram rail_urban rail rail_electric rail_fast ship" speed="12.50" length="39.02" shape="1728.35,1573.99 1737.80,1567.36 1743.59,1561.78 1749.54,1556.49 1759.46,1550.75"/>
        <lane id=":108067773_1_4" index="4" disallow="pedestrian tram rail_urban rail rail_electric rail_fast ship" speed="12.50" length="39.02" shape="1729.97,1576.74 1739.30,1569.78 1744.88,1563.62 1750.79,1558.22 1761.12,1553.51"/>
        <lane id=":108067773_1_5" index="5" disallow="pedestrian tram rail_urban rail rail_electric rail_fast ship" speed="12.50" length="39.02" shape="1729.97,1576.74 1739.54,1570.23 1745.73,1565.04 1752.25,1560.60 1762.82,1556.33"/>
    </edge>
    <edge id=":108067773_7" function="internal">