<?xml version="1.0" encoding="UTF-8"?>

<!-- generated on 11/22/18 17:38:39 by Eclipse SUMO netconvert Version 1.0.1
<configuration xmlns:xsi="http://www.w3.org/2001/XMLSchema-instance" xsi:noNamespaceSchemaLocation="http://sumo.dlr.de/xsd/netconvertConfiguration.xsd">

    <input>
        <osm-files value="D:\LocalData\a022927\thesis_Lu\TP_ENPC\osm_Paris\map.osm"/>
    </input>

    <output>
        <output-file value="D:\LocalData\a022927\thesis_Lu\TP_ENPC\osm_Paris\paris.net.xml"/>
    </output>

    <projection>
        <proj.utm value="true"/>
    </projection>

</configuration>
-->

<net version="1.0" junctionCornerDetail="5" limitTurnSpeed="5.50" xmlns:xsi="http://www.w3.org/2001/XMLSchema-instance" xsi:noNamespaceSchemaLocation="http://sumo.dlr.de/xsd/net_file.xsd">

    <location netOffset="-444059.78,-5407881.20" convBoundary="0.00,0.00,11533.09,7897.01" origBoundary="2.236834,48.821771,2.394693,48.892429" projParameter="+proj=utm +zone=31 +ellps=WGS84 +datum=WGS84 +units=m +no_defs"/>

    <type id="highway.bridleway" priority="1" numLanes="1" speed="2.78" allow="pedestrian" oneway="1" width="2.00"/>
    <type id="highway.bus_guideway" priority="1" numLanes="1" speed="27.78" allow="bus" oneway="1"/>
    <type id="highway.cycleway" priority="1" numLanes="1" speed="8.33" allow="bicycle" oneway="0" width="1.00"/>
    <type id="highway.footway" priority="1" numLanes="1" speed="2.78" allow="pedestrian" oneway="1" width="2.00"/>
    <type id="highway.ford" priority="1" numLanes="1" speed="2.78" allow="army" oneway="0"/>
    <type id="highway.living_street" priority="3" numLanes="1" speed="2.78" disallow="tram rail_urban rail rail_electric ship" oneway="0"/>
    <type id="highway.motorway" priority="13" numLanes="2" speed="44.44" allow="private emergency authority army vip passenger hov taxi bus coach delivery truck trailer motorcycle evehicle custom1 custom2" oneway="1"/>
    <type id="highway.motorway_link" priority="12" numLanes="1" speed="22.22" allow="private emergency authority army vip passenger hov taxi bus coach delivery truck trailer motorcycle evehicle custom1 custom2" oneway="1"/>
    <type id="highway.path" priority="1" numLanes="1" speed="2.78" allow="bicycle pedestrian" oneway="1" width="2.00"/>
    <type id="highway.pedestrian" priority="1" numLanes="1" speed="2.78" allow="pedestrian" oneway="1" width="2.00"/>
    <type id="highway.primary" priority="9" numLanes="2" speed="27.78" disallow="tram rail_urban rail rail_electric ship" oneway="0"/>
    <type id="highway.primary_link" priority="8" numLanes="1" speed="22.22" disallow="tram rail_urban rail rail_electric ship" oneway="0"/>
    <type id="highway.raceway" priority="14" numLanes="2" speed="83.33" allow="vip" oneway="0"/>
    <type id="highway.residential" priority="4" numLanes="1" speed="13.89" disallow="tram rail_urban rail rail_electric ship" oneway="0"/>
    <type id="highway.secondary" priority="7" numLanes="2" speed="27.78" disallow="tram rail_urban rail rail_electric ship" oneway="0"/>
    <type id="highway.secondary_link" priority="6" numLanes="1" speed="22.22" disallow="tram rail_urban rail rail_electric ship" oneway="0"/>
    <type id="highway.service" priority="2" numLanes="1" speed="5.56" allow="delivery bicycle pedestrian" oneway="0"/>
    <type id="highway.stairs" priority="1" numLanes="1" speed="1.39" allow="pedestrian" oneway="1" width="2.00"/>
    <type id="highway.step" priority="1" numLanes="1" speed="1.39" allow="pedestrian" oneway="1" width="2.00"/>
    <type id="highway.steps" priority="1" numLanes="1" speed="1.39" allow="pedestrian" oneway="1" width="2.00"/>
    <type id="highway.tertiary" priority="6" numLanes="1" speed="22.22" disallow="tram rail_urban rail rail_electric ship" oneway="0"/>
    <type id="highway.tertiary_link" priority="5" numLanes="1" speed="22.22" disallow="tram rail_urban rail rail_electric ship" oneway="0"/>
    <type id="highway.track" priority="1" numLanes="1" speed="5.56" disallow="tram rail_urban rail rail_electric ship" oneway="0"/>
    <type id="highway.trunk" priority="11" numLanes="2" speed="27.78" disallow="tram rail_urban rail rail_electric bicycle pedestrian ship" oneway="0"/>
    <type id="highway.trunk_link" priority="10" numLanes="1" speed="22.22" disallow="tram rail_urban rail rail_electric bicycle pedestrian ship" oneway="0"/>
    <type id="highway.unclassified" priority="5" numLanes="1" speed="13.89" disallow="tram rail_urban rail rail_electric ship" oneway="0"/>
    <type id="highway.unsurfaced" priority="1" numLanes="1" speed="8.33" disallow="tram rail_urban rail rail_electric ship" oneway="0"/>
    <type id="railway.light_rail" priority="15" numLanes="1" speed="27.78" allow="rail_urban" oneway="1"/>
    <type id="railway.preserved" priority="15" numLanes="1" speed="27.78" allow="rail" oneway="1"/>
    <type id="railway.rail" priority="15" numLanes="1" speed="83.33" allow="rail rail_electric" oneway="1"/>
    <type id="railway.subway" priority="15" numLanes="1" speed="27.78" allow="rail_urban" oneway="1"/>
    <type id="railway.tram" priority="15" numLanes="1" speed="13.89" allow="tram" oneway="1"/>

    <edge id=":135294276_0" function="internal">
        <lane id=":135294276_0_0" index="0" disallow="tram rail_urban rail rail_electric ship" speed="13.89" length="19.50" shape="4010.41,5917.32 4006.60,5917.75 4002.38,5918.22 3997.47,5919.36 3991.57,5921.78"/>
    </edge>
    <edge id=":135294276_1" function="internal">
        <lane id=":135294276_1_0" index="0" disallow="tram rail_urban rail rail_electric ship" speed="13.89" length="19.53" shape="4009.08,5913.20 3991.57,5921.78"/>
        <lane id=":135294276_1_1" index="1" disallow="tram rail_urban rail rail_electric ship" speed="13.89" length="19.53" shape="4007.66,5910.33 3990.13,5918.93"/>
        <lane id=":135294276_1_2" index="2" disallow="tram rail_urban rail rail_electric ship" speed="13.89" length="19.53" shape="4006.24,5907.46 3988.68,5916.07"/>
    </edge>
    <edge id=":135294293_0" function="internal">
        <lane id=":135294293_0_0" index="0" disallow="tram rail_urban rail rail_electric ship" speed="13.89" length="60.67" shape="4484.41,5691.31 4430.04,5718.20"/>
        <lane id=":135294293_0_1" index="1" disallow="tram rail_urban rail rail_electric ship" speed="13.89" length="60.67" shape="4482.99,5688.44 4428.60,5715.34"/>
    </edge>
    <edge id=":137552078_0" function="internal">
        <lane id=":137552078_0_0" index="0" disallow="tram rail_urban rail rail_electric ship" speed="13.89" length="8.21" shape="4097.13,5878.56 4095.08,5879.82 4093.87,5881.01 4092.67,5882.21 4090.63,5883.49"/>
    </edge>
    <edge id=":1534524018_0" function="internal">
        <lane id=":1534524018_0_0" index="0" disallow="tram rail_urban rail rail_electric ship" speed="13.89" length="2.57" shape="4811.36,5381.75 4810.08,5379.52"/>
    </edge>
    <edge id=":1534524018_1" function="internal">
        <lane id=":1534524018_1_0" index="0" disallow="tram rail_urban rail rail_electric ship" speed="9.73" length="2.03" shape="4811.44,5381.02 4810.99,5380.61 4810.67,5380.34 4810.40,5380.03 4810.08,5379.52"/>
    </edge>
    <edge id=":1534547345_0" function="internal">
        <lane id=":1534547345_0_0" index="0" disallow="tram rail_urban rail rail_electric ship" speed="13.89" length="0.10" shape="4413.62,5791.93 4413.62,5791.93"/>
    </edge>
    <edge id=":1534568240_0" function="internal">
        <lane id=":1534568240_0_0" index="0" disallow="tram rail_urban rail rail_electric ship" speed="13.89" length="5.00" shape="4710.04,5563.67 4705.56,5565.90"/>
        <lane id=":1534568240_0_1" index="1" disallow="tram rail_urban rail rail_electric ship" speed="13.89" length="5.00" shape="4708.61,5560.81 4704.14,5563.03"/>
        <lane id=":1534568240_0_2" index="2" disallow="tram rail_urban rail rail_electric ship" speed="13.89" length="5.00" shape="4707.18,5557.94 4702.71,5560.17"/>
    </edge>
    <edge id=":1534568240_3" function="internal">
        <lane id=":1534568240_3_0" index="0" disallow="tram rail_urban rail rail_electric ship" speed="3.65" length="2.34" shape="4707.18,5557.94 4705.75,5557.76 4705.04,5557.22"/>
    </edge>
    <edge id=":1534568240_9" function="internal">
        <lane id=":1534568240_9_0" index="0" speed="3.65" length="2.34" shape="4705.04,5557.22 4705.04,5556.33 4705.76,5555.08"/>
    </edge>
    <edge id=":1534568240_4" function="internal">
        <lane id=":1534568240_4_0" index="0" disallow="tram rail_urban rail rail_electric ship" speed="13.89" length="5.00" shape="4697.01,5548.71 4701.48,5546.48"/>
        <lane id=":1534568240_4_1" index="1" disallow="tram rail_urban rail rail_electric ship" speed="13.89" length="5.00" shape="4698.43,5551.58 4702.90,5549.35"/>
        <lane id=":1534568240_4_2" index="2" disallow="tram rail_urban rail rail_electric ship" speed="13.89" length="5.00" shape="4699.86,5554.44 4704.33,5552.21"/>
        <lane id=":1534568240_4_3" index="3" disallow="tram rail_urban rail rail_electric ship" speed="13.89" length="5.00" shape="4701.28,5557.31 4705.76,5555.08"/>
    </edge>
    <edge id=":1534568240_8" function="internal">
        <lane id=":1534568240_8_0" index="0" disallow="tram rail_urban rail rail_electric ship" speed="3.65" length="2.34" shape="4701.28,5557.31 4702.72,5557.49 4703.43,5558.02"/>
    </edge>
    <edge id=":1534568240_10" function="internal">
        <lane id=":1534568240_10_0" index="0" speed="3.65" length="2.34" shape="4703.43,5558.02 4703.43,5558.92 4702.71,5560.17"/>
    </edge>
    <edge id=":1534568256_0" function="internal">
        <lane id=":1534568256_0_0" index="0" disallow="tram rail_urban rail rail_electric ship" speed="13.89" length="5.00" shape="4641.43,5601.26 4636.94,5603.46"/>
        <lane id=":1534568256_0_1" index="1" disallow="tram rail_urban rail rail_electric ship" speed="13.89" length="5.00" shape="4640.02,5598.39 4635.53,5600.59"/>
        <lane id=":1534568256_0_2" index="2" disallow="tram rail_urban rail rail_electric ship" speed="13.89" length="5.00" shape="4638.61,5595.52 4634.12,5597.72"/>
        <lane id=":1534568256_0_3" index="3" disallow="tram rail_urban rail rail_electric ship" speed="13.89" length="5.00" shape="4637.20,5592.64 4632.71,5594.85"/>
    </edge>
    <edge id=":1534568256_4" function="internal">
        <lane id=":1534568256_4_0" index="0" disallow="tram rail_urban rail rail_electric ship" speed="3.65" length="2.34" shape="4637.20,5592.64 4635.77,5592.46 4635.05,5591.91"/>
    </edge>
    <edge id=":1534568256_9" function="internal">
        <lane id=":1534568256_9_0" index="0" speed="3.65" length="2.34" shape="4635.05,5591.91 4635.06,5591.02 4635.79,5589.77"/>
    </edge>
    <edge id=":1534568256_5" function="internal">
        <lane id=":1534568256_5_0" index="0" disallow="tram rail_urban rail rail_electric ship" speed="13.89" length="5.00" shape="4628.48,5586.23 4632.97,5584.03"/>
        <lane id=":1534568256_5_1" index="1" disallow="tram rail_urban rail rail_electric ship" speed="13.89" length="5.00" shape="4629.89,5589.10 4634.38,5586.90"/>
        <lane id=":1534568256_5_2" index="2" disallow="tram rail_urban rail rail_electric ship" speed="13.89" length="5.00" shape="4631.30,5591.98 4635.79,5589.77"/>
    </edge>
    <edge id=":1534568256_8" function="internal">
        <lane id=":1534568256_8_0" index="0" disallow="tram rail_urban rail rail_electric ship" speed="3.65" length="2.34" shape="4631.30,5591.98 4632.73,5592.16 4633.44,5592.71"/>
    </edge>
    <edge id=":1534568256_10" function="internal">
        <lane id=":1534568256_10_0" index="0" speed="3.65" length="2.34" shape="4633.44,5592.71 4633.43,5593.60 4632.71,5594.85"/>
    </edge>
    <edge id=":1534568286_0" function="internal">
        <lane id=":1534568286_0_0" index="0" disallow="tram rail_urban rail rail_electric ship" speed="13.89" length="5.00" shape="4562.33,5640.11 4557.84,5642.31"/>
        <lane id=":1534568286_0_1" index="1" disallow="tram rail_urban rail rail_electric ship" speed="13.89" length="5.00" shape="4560.92,5637.23 4556.43,5639.44"/>
        <lane id=":1534568286_0_2" index="2" disallow="tram rail_urban rail rail_electric ship" speed="13.89" length="5.00" shape="4559.51,5634.36 4555.02,5636.57"/>
        <lane id=":1534568286_0_3" index="3" disallow="tram rail_urban rail rail_electric ship" speed="13.89" length="5.00" shape="4558.10,5631.49 4553.61,5633.69"/>
    </edge>
    <edge id=":1534568286_4" function="internal">
        <lane id=":1534568286_4_0" index="0" disallow="tram rail_urban rail rail_electric ship" speed="3.65" length="2.34" shape="4558.10,5631.49 4556.67,5631.30 4555.95,5630.76"/>
    </edge>
    <edge id=":1534568286_9" function="internal">
        <lane id=":1534568286_9_0" index="0" speed="3.65" length="2.34" shape="4555.95,5630.76 4555.96,5629.86 4556.68,5628.62"/>
    </edge>
    <edge id=":1534568286_5" function="internal">
        <lane id=":1534568286_5_0" index="0" disallow="tram rail_urban rail rail_electric ship" speed="13.89" length="5.00" shape="4549.38,5625.08 4553.86,5622.87"/>
        <lane id=":1534568286_5_1" index="1" disallow="tram rail_urban rail rail_electric ship" speed="13.89" length="5.00" shape="4550.79,5627.95 4555.27,5625.74"/>
        <lane id=":1534568286_5_2" index="2" disallow="tram rail_urban rail rail_electric ship" speed="13.89" length="5.00" shape="4552.20,5630.82 4556.68,5628.62"/>
    </edge>
    <edge id=":1534568286_8" function="internal">
        <lane id=":1534568286_8_0" index="0" disallow="tram rail_urban rail rail_electric ship" speed="3.65" length="2.34" shape="4552.20,5630.82 4553.63,5631.01 4554.34,5631.55"/>
    </edge>
    <edge id=":1534568286_10" function="internal">
        <lane id=":1534568286_10_0" index="0" speed="3.65" length="2.34" shape="4554.34,5631.55 4554.33,5632.45 4553.61,5633.69"/>
    </edge>
    <edge id=":1534568309_0" function="internal">
        <lane id=":1534568309_0_0" index="0" disallow="tram rail_urban rail rail_electric ship" speed="13.89" length="5.00" shape="4429.33,5705.64 4424.85,5707.85"/>
        <lane id=":1534568309_0_1" index="1" disallow="tram rail_urban rail rail_electric ship" speed="13.89" length="5.00" shape="4427.92,5702.77 4423.43,5704.98"/>
        <lane id=":1534568309_0_2" index="2" disallow="tram rail_urban rail rail_electric ship" speed="13.89" length="5.00" shape="4426.50,5699.90 4422.02,5702.11"/>
        <lane id=":1534568309_0_3" index="3" disallow="tram rail_urban rail rail_electric ship" speed="13.89" length="5.00" shape="4425.08,5697.03 4420.60,5699.24"/>
    </edge>
    <edge id=":1534568309_4" function="internal">
        <lane id=":1534568309_4_0" index="0" disallow="tram rail_urban rail rail_electric ship" speed="3.65" length="2.34" shape="4425.08,5697.03 4423.65,5696.84 4422.94,5696.30"/>
    </edge>
    <edge id=":1534568309_9" function="internal">
        <lane id=":1534568309_9_0" index="0" speed="3.65" length="2.34" shape="4422.94,5696.30 4422.94,5695.41 4423.67,5694.16"/>
    </edge>
    <edge id=":1534568309_5" function="internal">
        <lane id=":1534568309_5_0" index="0" disallow="tram rail_urban rail rail_electric ship" speed="13.89" length="5.00" shape="4416.35,5690.63 4420.83,5688.42"/>
        <lane id=":1534568309_5_1" index="1" disallow="tram rail_urban rail rail_electric ship" speed="13.89" length="5.00" shape="4417.77,5693.50 4422.25,5691.29"/>
        <lane id=":1534568309_5_2" index="2" disallow="tram rail_urban rail rail_electric ship" speed="13.89" length="5.00" shape="4419.18,5696.37 4423.67,5694.16"/>
    </edge>
    <edge id=":1534568309_8" function="internal">
        <lane id=":1534568309_8_0" index="0" disallow="tram rail_urban rail rail_electric ship" speed="3.65" length="2.34" shape="4419.18,5696.37 4420.61,5696.56 4421.33,5697.10"/>
    </edge>
    <edge id=":1534568309_10" function="internal">
        <lane id=":1534568309_10_0" index="0" speed="3.65" length="2.34" shape="4421.33,5697.10 4421.32,5697.99 4420.60,5699.24"/>
    </edge>
    <edge id=":1534568331_0" function="internal">
        <lane id=":1534568331_0_0" index="0" disallow="tram rail_urban rail rail_electric ship" speed="13.89" length="5.41" shape="4389.55,5725.30 4384.70,5727.70"/>
        <lane id=":1534568331_0_1" index="1" disallow="tram rail_urban rail rail_electric ship" speed="13.89" length="5.41" shape="4388.13,5722.43 4383.27,5724.83"/>
        <lane id=":1534568331_0_2" index="2" disallow="tram rail_urban rail rail_electric ship" speed="13.89" length="5.41" shape="4386.71,5719.56 4381.85,5721.96"/>
        <lane id=":1534568331_0_3" index="3" disallow="tram rail_urban rail rail_electric ship" speed="13.89" length="5.41" shape="4385.29,5716.69 4380.43,5719.10"/>
    </edge>
    <edge id=":1534568331_4" function="internal">
        <lane id=":1534568331_4_0" index="0" disallow="tram rail_urban rail rail_electric ship" speed="3.65" length="2.34" shape="4385.29,5716.69 4383.86,5716.51 4383.14,5715.97"/>
    </edge>
    <edge id=":1534568331_10" function="internal">
        <lane id=":1534568331_10_0" index="0" speed="3.65" length="2.34" shape="4383.14,5715.97 4383.15,5715.07 4383.87,5713.82"/>
    </edge>
    <edge id=":1534568331_5" function="internal">
        <lane id=":1534568331_5_0" index="0" disallow="tram rail_urban rail rail_electric ship" speed="13.89" length="5.42" shape="4374.75,5707.63 4379.61,5705.22"/>
        <lane id=":1534568331_5_1" index="1" disallow="tram rail_urban rail rail_electric ship" speed="13.89" length="5.42" shape="4376.17,5710.50 4381.03,5708.09"/>
        <lane id=":1534568331_5_2" index="2" disallow="tram rail_urban rail rail_electric ship" speed="13.89" length="5.42" shape="4377.59,5713.36 4382.45,5710.96"/>
        <lane id=":1534568331_5_3" index="3" disallow="tram rail_urban rail rail_electric ship" speed="13.89" length="5.42" shape="4379.01,5716.23 4383.87,5713.82"/>
    </edge>
    <edge id=":1534568331_9" function="internal">
        <lane id=":1534568331_9_0" index="0" disallow="tram rail_urban rail rail_electric ship" speed="3.65" length="2.34" shape="4379.01,5716.23 4380.44,5716.41 4381.16,5716.95"/>
    </edge>
    <edge id=":1534568331_11" function="internal">
        <lane id=":1534568331_11_0" index="0" speed="3.65" length="2.34" shape="4381.16,5716.95 4381.15,5717.85 4380.43,5719.10"/>
    </edge>
    <edge id=":1534568367_0" function="internal">
        <lane id=":1534568367_0_0" index="0" disallow="tram rail_urban rail rail_electric ship" speed="13.89" length="5.18" shape="4361.88,5739.01 4357.24,5741.31"/>
        <lane id=":1534568367_0_1" index="1" disallow="tram rail_urban rail rail_electric ship" speed="13.89" length="5.18" shape="4360.46,5736.14 4355.82,5738.44"/>
        <lane id=":1534568367_0_2" index="2" disallow="tram rail_urban rail rail_electric ship" speed="13.89" length="5.18" shape="4359.04,5733.27 4354.40,5735.57"/>
        <lane id=":1534568367_0_3" index="3" disallow="tram rail_urban rail rail_electric ship" speed="13.89" length="5.18" shape="4357.61,5730.41 4352.98,5732.71"/>
    </edge>
    <edge id=":1534568367_4" function="internal">
        <lane id=":1534568367_4_0" index="0" disallow="tram rail_urban rail rail_electric ship" speed="3.65" length="2.34" shape="4357.61,5730.41 4356.18,5730.22 4355.47,5729.69"/>
    </edge>
    <edge id=":1534568367_10" function="internal">
        <lane id=":1534568367_10_0" index="0" speed="3.65" length="2.34" shape="4355.47,5729.69 4355.47,5728.79 4356.19,5727.54"/>
    </edge>
    <edge id=":1534568367_5" function="internal">
        <lane id=":1534568367_5_0" index="0" disallow="tram rail_urban rail rail_electric ship" speed="13.89" length="5.17" shape="4347.29,5721.24 4351.93,5718.94"/>
        <lane id=":1534568367_5_1" index="1" disallow="tram rail_urban rail rail_electric ship" speed="13.89" length="5.17" shape="4348.71,5724.10 4353.35,5721.81"/>
        <lane id=":1534568367_5_2" index="2" disallow="tram rail_urban rail rail_electric ship" speed="13.89" length="5.17" shape="4350.13,5726.97 4354.77,5724.67"/>
        <lane id=":1534568367_5_3" index="3" disallow="tram rail_urban rail rail_electric ship" speed="13.89" length="5.17" shape="4351.55,5729.84 4356.19,5727.54"/>
    </edge>
    <edge id=":1534568367_9" function="internal">
        <lane id=":1534568367_9_0" index="0" disallow="tram rail_urban rail rail_electric ship" speed="3.65" length="2.34" shape="4351.55,5729.84 4352.98,5730.02 4353.70,5730.56"/>
    </edge>
    <edge id=":1534568367_11" function="internal">
        <lane id=":1534568367_11_0" index="0" speed="3.65" length="2.34" shape="4353.70,5730.56 4353.70,5731.46 4352.98,5732.71"/>
    </edge>
    <edge id=":1534591745_0" function="internal">
        <lane id=":1534591745_0_0" index="0" disallow="tram rail_urban rail rail_electric ship" speed="13.89" length="5.10" shape="5350.80,5203.96 5350.68,5209.06"/>
    </edge>
    <edge id=":1534591745_1" function="internal">
        <lane id=":1534591745_1_0" index="0" allow="bus bicycle" speed="3.65" length="2.34" shape="5350.80,5203.96 5349.97,5205.14 5349.16,5205.52"/>
    </edge>
    <edge id=":1534591745_4" function="internal">
        <lane id=":1534591745_4_0" index="0" speed="3.65" length="2.34" shape="5349.16,5205.52 5348.37,5205.11 5347.60,5203.89"/>
    </edge>
    <edge id=":1534591745_2" function="internal">
        <lane id=":1534591745_2_0" index="0" allow="bus bicycle" speed="13.89" length="5.10" shape="5347.48,5208.98 5347.60,5203.89"/>
    </edge>
    <edge id=":1534591745_3" function="internal">
        <lane id=":1534591745_3_0" index="0" disallow="tram rail_urban rail rail_electric ship" speed="3.65" length="2.34" shape="5347.48,5208.98 5348.31,5207.80 5349.12,5207.42"/>
    </edge>
    <edge id=":1534591745_5" function="internal">
        <lane id=":1534591745_5_0" index="0" speed="3.65" length="2.34" shape="5349.12,5207.42 5349.91,5207.84 5350.68,5209.06"/>
    </edge>
    <edge id=":1534591749_0" function="internal">
        <lane id=":1534591749_0_0" index="0" disallow="tram rail_urban rail rail_electric ship" speed="13.89" length="5.03" shape="5370.99,5217.26 5375.51,5215.00"/>
        <lane id=":1534591749_0_1" index="1" disallow="tram rail_urban rail rail_electric ship" speed="13.89" length="5.03" shape="5372.43,5220.11 5376.93,5217.86"/>
        <lane id=":1534591749_0_2" index="2" disallow="tram rail_urban rail rail_electric ship" speed="13.89" length="5.03" shape="5373.87,5222.97 5378.35,5220.73"/>
    </edge>
    <edge id=":1534591752_0" function="internal">
        <lane id=":1534591752_0_0" index="0" disallow="tram rail_urban rail rail_electric ship" speed="13.89" length="3.95" shape="5326.70,5222.94 5323.59,5220.50"/>
    </edge>
    <edge id=":1534591755_0" function="internal">
        <lane id=":1534591755_0_0" index="0" allow="bus bicycle" speed="13.89" length="5.19" shape="5384.12,5232.12 5379.45,5234.36"/>
        <lane id=":1534591755_0_1" index="1" disallow="tram rail_urban rail rail_electric ship" speed="13.89" length="5.19" shape="5382.74,5229.24 5378.06,5231.48"/>
        <lane id=":1534591755_0_2" index="2" disallow="tram rail_urban rail rail_electric ship" speed="13.89" length="5.19" shape="5381.36,5226.35 5376.68,5228.59"/>
    </edge>
    <edge id=":1534591766_0" function="internal">
        <lane id=":1534591766_0_0" index="0" disallow="tram rail_urban rail rail_electric ship" speed="13.89" length="5.07" shape="5322.77,5257.39 5318.24,5259.63"/>
        <lane id=":1534591766_0_1" index="1" disallow="tram rail_urban rail rail_electric ship" speed="13.89" length="5.07" shape="5321.36,5254.52 5316.81,5256.76"/>
    </edge>
    <edge id=":1534591766_2" function="internal">
        <lane id=":1534591766_2_0" index="0" disallow="tram rail_urban rail rail_electric ship" speed="3.65" length="2.34" shape="5321.36,5254.52 5319.93,5254.33 5319.22,5253.79"/>
    </edge>
    <edge id=":1534591766_6" function="internal">
        <lane id=":1534591766_6_0" index="0" speed="3.65" length="2.34" shape="5319.22,5253.79 5319.23,5252.89 5319.95,5251.64"/>
    </edge>
    <edge id=":1534591766_3" function="internal">
        <lane id=":1534591766_3_0" index="0" disallow="tram rail_urban rail rail_electric ship" speed="13.89" length="5.10" shape="5313.97,5251.03 5318.55,5248.77"/>
        <lane id=":1534591766_3_1" index="1" disallow="tram rail_urban rail rail_electric ship" speed="13.89" length="5.10" shape="5315.39,5253.90 5319.95,5251.64"/>
    </edge>
    <edge id=":1534591766_5" function="internal">
        <lane id=":1534591766_5_0" index="0" disallow="tram rail_urban rail rail_electric ship" speed="3.65" length="2.34" shape="5315.39,5253.90 5316.82,5254.08 5317.53,5254.62"/>
    </edge>
    <edge id=":1534591766_7" function="internal">
        <lane id=":1534591766_7_0" index="0" speed="3.65" length="2.34" shape="5317.53,5254.62 5317.53,5255.51 5316.81,5256.76"/>
    </edge>
    <edge id=":1534591769_0" function="internal">
        <lane id=":1534591769_0_0" index="0" disallow="tram rail_urban rail rail_electric ship" speed="13.89" length="9.80" shape="5372.38,5252.96 5374.47,5254.95 5375.64,5256.59 5376.81,5258.23 5378.90,5260.22"/>
        <lane id=":1534591769_0_1" index="1" disallow="tram rail_urban rail rail_electric ship" speed="13.89" length="9.80" shape="5370.38,5255.46 5372.47,5257.45 5373.64,5259.09 5374.81,5260.73 5376.90,5262.72"/>
    </edge>
    <edge id=":1534591782_0" function="internal">
        <lane id=":1534591782_0_0" index="0" disallow="tram rail_urban rail rail_electric ship" speed="13.89" length="4.84" shape="5280.32,5285.71 5275.89,5287.93"/>
        <lane id=":1534591782_0_1" index="1" disallow="tram rail_urban rail rail_electric ship" speed="13.89" length="4.84" shape="5278.85,5282.86 5274.49,5285.05"/>
        <lane id=":1534591782_0_2" index="2" disallow="tram rail_urban rail rail_electric ship" speed="13.89" length="4.84" shape="5277.38,5280.02 5273.09,5282.17"/>
        <lane id=":1534591782_0_3" index="3" disallow="tram rail_urban rail rail_electric ship" speed="13.89" length="4.84" shape="5275.91,5277.18 5271.69,5279.29"/>
    </edge>
    <edge id=":1534591782_4" function="internal">
        <lane id=":1534591782_4_0" index="0" disallow="tram rail_urban rail rail_electric ship" speed="3.65" length="2.34" shape="5275.91,5277.18 5274.47,5277.02 5273.75,5276.49"/>
    </edge>
    <edge id=":1534591782_10" function="internal">
        <lane id=":1534591782_10_0" index="0" speed="3.65" length="2.34" shape="5273.75,5276.49 5273.74,5275.60 5274.44,5274.34"/>
    </edge>
    <edge id=":1534591782_5" function="internal">
        <lane id=":1534591782_5_0" index="0" disallow="tram rail_urban rail rail_electric ship" speed="13.89" length="4.52" shape="5266.08,5267.78 5270.02,5265.81"/>
        <lane id=":1534591782_5_1" index="1" disallow="tram rail_urban rail rail_electric ship" speed="13.89" length="4.52" shape="5267.49,5270.66 5271.49,5268.66"/>
        <lane id=":1534591782_5_2" index="2" disallow="tram rail_urban rail rail_electric ship" speed="13.89" length="4.52" shape="5268.89,5273.54 5272.96,5271.50"/>
        <lane id=":1534591782_5_3" index="3" disallow="tram rail_urban rail rail_electric ship" speed="13.89" length="4.52" shape="5270.29,5276.42 5274.44,5274.34"/>
    </edge>
    <edge id=":1534591782_9" function="internal">
        <lane id=":1534591782_9_0" index="0" disallow="tram rail_urban rail rail_electric ship" speed="3.65" length="2.34" shape="5270.29,5276.42 5271.71,5276.61 5272.42,5277.16"/>
    </edge>
    <edge id=":1534591782_11" function="internal">
        <lane id=":1534591782_11_0" index="0" speed="3.65" length="2.34" shape="5272.42,5277.16 5272.41,5278.05 5271.69,5279.29"/>
    </edge>
    <edge id=":1534591802_0" function="internal">
        <lane id=":1534591802_0_0" index="0" disallow="tram rail_urban rail rail_electric ship" speed="13.89" length="3.02" shape="5119.06,5365.34 5116.34,5366.69"/>
        <lane id=":1534591802_0_1" index="1" disallow="tram rail_urban rail rail_electric ship" speed="13.89" length="3.02" shape="5117.64,5362.47 5114.92,5363.82"/>
        <lane id=":1534591802_0_2" index="2" disallow="tram rail_urban rail rail_electric ship" speed="13.89" length="3.02" shape="5116.21,5359.61 5113.51,5360.94"/>
        <lane id=":1534591802_0_3" index="3" disallow="tram rail_urban rail rail_electric ship" speed="13.89" length="3.02" shape="5114.79,5356.74 5112.10,5358.07"/>
    </edge>
    <edge id=":1534591802_4" function="internal">
        <lane id=":1534591802_4_0" index="0" disallow="tram rail_urban rail rail_electric ship" speed="3.65" length="2.34" shape="5114.79,5356.74 5113.36,5356.56 5112.65,5356.02"/>
    </edge>
    <edge id=":1534591802_10" function="internal">
        <lane id=":1534591802_10_0" index="0" speed="3.65" length="2.34" shape="5112.65,5356.02 5112.65,5355.13 5113.37,5353.88"/>
    </edge>
    <edge id=":1534591802_5" function="internal">
        <lane id=":1534591802_5_0" index="0" disallow="tram rail_urban rail rail_electric ship" speed="13.89" length="2.98" shape="5106.44,5346.59 5109.10,5345.28"/>
        <lane id=":1534591802_5_1" index="1" disallow="tram rail_urban rail rail_electric ship" speed="13.89" length="2.98" shape="5107.86,5349.46 5110.52,5348.14"/>
        <lane id=":1534591802_5_2" index="2" disallow="tram rail_urban rail rail_electric ship" speed="13.89" length="2.98" shape="5109.27,5352.33 5111.94,5351.01"/>
        <lane id=":1534591802_5_3" index="3" disallow="tram rail_urban rail rail_electric ship" speed="13.89" length="2.98" shape="5110.68,5355.20 5113.37,5353.88"/>
    </edge>
    <edge id=":1534591802_9" function="internal">
        <lane id=":1534591802_9_0" index="0" disallow="tram rail_urban rail rail_electric ship" speed="3.65" length="2.34" shape="5110.68,5355.20 5112.11,5355.39 5112.82,5355.93"/>
    </edge>
    <edge id=":1534591802_11" function="internal">