<?xml version="1.0" encoding="UTF-8"?>

<!-- generated on 11/22/18 17:55:28 by Eclipse SUMO duarouter Version 1.0.1
<configuration xmlns:xsi="http://www.w3.org/2001/XMLSchema-instance" xsi:noNamespaceSchemaLocation="http://sumo.dlr.de/xsd/duarouterConfiguration.xsd">

    <input>
        <net-file value="D:\LocalData\a022927\thesis_Lu\TP_ENPC\osm_Paris\paris.net.xml"/>
        <route-files value="D:\LocalData\a022927\thesis_Lu\TP_ENPC\osm_Paris\paris.trips.xml"/>
    </input>

    <output>
        <output-file value="D:\LocalData\a022927\thesis_Lu\TP_ENPC\osm_Paris\paris.rou.xml"/>
        <alternatives-output value="D:\LocalData\a022927\thesis_Lu\TP_ENPC\osm_Paris\paris.rou.alt.xml"/>
    </output>

    <time>
        <begin value="0.0"/>
        <end value="1000.0"/>
    </time>

    <report>
        <no-warnings value="true"/>
        <ignore-errors value="true"/>
        <no-step-log value="true"/>
    </report>

</configuration>
-->

<routes xmlns:xsi="http://www.w3.org/2001/XMLSchema-instance" xsi:noNamespaceSchemaLocation="http://sumo.dlr.de/xsd/routes_file.xsd">
    <vehicle id="0" depart="0.00">
        <route edges="27245904#1 27245904#2 4941948#6 4941948#7 4941948#8 4941948#9 4941948#10 4941948#11 4941948#12 4941948#13 4941948#14 4941940#4 4941940#5 4941940#6 553772532 70736941#0 70736941#1 -70736941#1"/>
    </vehicle>
    <vehicle id="1" depart="1.00">
        <route edges="26588610#4 26588610#5 26589107#0 26589107#1 26589107#2 26589107#3 8413402#0 8413402#1 630455864#2 470987535#0 470987535#1 470987535#2 470987535#3 470987535#4 470987535#5 470987535#6 470987535#7 470987535#8 544549304#0 544549304#1 193476880 314456037 190627546 184551793#0 184551793#1 365158942 642898830#0 642898830#1 642898830#2 642901742#0 642901742#1 642901742#2 626668696#0 626668696#1 626668696#2 626668696#3 626668696#4 643131004#0 643131004#1 642910715#0 642910715#1 642910715#2 642910715#3 642910715#4 642910715#5 643134324#0"/>
    </vehicle>
    <vehicle id="2" depart="2.00">
        <route edges="-25034670 25034670 4444157#6 4444157#7 4444157#8 4472299#0 4472299#1 470987535#0 470987535#1 470987535#2 470987535#3 470987535#4 470987535#5 470987535#6 470987535#7 470987535#8 544549304#0 544549304#1 193476880 314456037 190627546 184551793#0 184551793#1 24931206#0 24931206#1 24931206#2 31544845 553772533#0 553772533#1 51498241#0 51498241#1 51498241#2 23819963#3"/>
    </vehicle>
    <vehicle id="3" depart="3.00">
        <route edges="4293940#1 4293940#2 -31544817#4 -31544817#3 294804941#1 294804941#2 294804941#3 294804941#4 566475374#0 566475374#1 566475374#2 642901742#0 642901742#1 642901742#2 626668696#0 626668696#1 626668696#2 626668696#3 626668696#4 643131004#0 643131004#1 642910715#0 642910715#1 642910715#2 642910715#3 642910715#4 642910715#5 643134324#0 643134324#1 643134324#2 642913230#0 642913230#1 642913230#2 642913230#3 642913230#4 642913230#5 642913230#6 642913230#7 642913230#8 642915295#0 -642915295#0 25095051#0 25095051#1 25095051#2 25095051#3 565522607#0"/>
    </vehicle>
    <vehicle id="4" depart="4.00">
        <route edges="566475377#0 566475377#1 190627546 184551793#0 184551793#1 365158942 193465140 503103508 24027319#0 24027319#1 24027319#2 24027319#3 566475381#0 566475381#1 502174127#0 502174127#1 502174127#2 -24944197#1 -24944197#0 24911264#0"/>
    </vehicle>
    <vehicle id="6" depart="6.00">
        <route edges="69325369#3 69325369#4 69325369#5 69325369#6 69325369#7 69325369#8 4293992#12 4293992#13 4293992#14 4293992#15 4293992#16 4293992#17 642910715#0 642727556 4941938#0 4941938#1 4941938#2 4941938#3 4941938#4 4941938#5 4941938#6 4941938#7 24911219#1 83724056 24911210#0 24911210#1 553772532 70736935 -164047642#5 -164047642#4 -164047642#3 4472335#0 4472335#1"/>
    </vehicle>
    <vehicle id="7" depart="7.00">
        <route edges="-314456033#1 314456033#1 314456033#2 314456033#3 314456033#4 71505096#0 71505096#1 71505096#2 71505096#3 71505096#4 71505096#5 71505096#6 71505096#7 24944221#0 24944221#1 24911219#0 24911219#1 24911252 52026462#0 52026462#1 52026462#2 17067845#0 17067845#1 70736939 68907549#0 68907549#1 68907549#2 68907549#3 68907549#4 68907549#5 565522607#0 565522607#1 362231920 142321476 517322729 330448965 331135226 4294035 365158940#0 365158940#1 365158940#2 365158940#3"/>
    </vehicle>
    <vehicle id="8" depart="8.00">
        <route edges="28228767#1 28228767#2 83724048 20205692 24911219#0 24911219#1 24911252 52026462#0 52026462#1 52026462#2 17067845#0 17067845#1 83724071#0 83724071#1 83724071#2 17067973#0 68904241#1 4942434"/>
    </vehicle>
    <vehicle id="9" depart="9.00">
        <route edges="5096930#4 5096930#5 5096930#6 366984752#3 31544800#0 31544800#1 314456037 190627546 184551793#0 184551793#1 365158942 193465140 503103508 503103507 522266410 190627544#0 566475380#0 566475380#1 566475380#2 566475379#0 566475379#1 -566475379#1"/>
    </vehicle>
    <vehicle id="10" depart="10.00">
        <route edges="-83724071#2 -83724071#1 -83724071#0 70736939 68907539#0 68907539#1 68907539#2 68907539#3 4941948#7 4941948#8 4941948#9 4941948#10 4941948#11 4941948#12 4941948#13 4941948#14 4941940#4 4941940#5 4941940#6 553772532 70736935 -164047642#5 -164047642#4 -164047642#3 4472335#0 4472335#1 4942541#1 488561496 488561506 488561490#0 488561490#1 488561505#0 488561505#1 488561505#2 488561499#0 488561499#1"/>
    </vehicle>
    <vehicle id="11" depart="11.00">
        <route edges="4082016 -4082016 51498241#2 4293994 4293995#0 4293995#1 69609792#1 -4293992#9 -4293992#8 -4293992#7 -4293992#6 24654957#0 24654957#1 365158944#0 69325369#5 69325369#6"/>
    </vehicle>
    <vehicle id="12" depart="12.00">
        <route edges="564199960#5 564199960#6 564199960#7 31544813#0 31544813#1 184551793#0 184551793#1 365158942 193465140 503103508 24027319#0 24027319#1 24027319#2 24027319#3 566475381#0 566475381#1 502174127#0 502174127#1 502174127#2 161357555#0 161357555#1 161357555#2 161357555#3 161357555#4 161357555#5 161357555#6 -161357555#6"/>
    </vehicle>
    <vehicle id="13" depart="13.00">
        <route edges="4444157#0 4444157#1 4444157#2 4444157#3 -4039129#1 -4039129#0 -566475379#1 -566475379#0 -566475380#2 -566475380#1 -566475380#0 190627544#1 193465143 193476880 314456037 190627546 184551793#0 184551793#1 365158942 193465140 24911190#0 24911190#1 314456032#0 314456032#1 314456032#2 314456032#3 314456033#0 314456033#1 314456033#2 314456033#3 314456033#4 71505096#0 71505096#1 71505096#2 71505096#3 71505096#4 71505096#5 71505096#6 71505096#7 24944221#0 24944221#1 24911219#0 24911219#1 5103393 83724048"/>
    </vehicle>
    <vehicle id="15" depart="15.00">
        <route edges="4450686#6 4450686#7 4450686#8 4450686#9 4450686#10 138279710#1 138279710#2 138279710#3 566475376#0 566475376#1 -366984752#3 26588610#0 26588610#1 26588964 17045774 27245432"/>
    </vehicle>
    <vehicle id="17" depart="17.00">
        <route edges="14163843#2 14163844 14310596 543476237#1 543476237#2 24792892#0 24792892#1 566475378 -566475379#0 -566475380#2 -566475380#1 -566475380#0 190627544#1 193465143 193476880 314456037 190627546 184551793#0 184551793#1 365158942 642898830#0 642898830#1 642898830#2 642901742#0 642901742#1 642901742#2 626668696#0 626668696#1 626668696#2 626668696#3 626668696#4 643131004#0 643131004#1 -4293992#17 -4293992#16 -4293992#15 -4293992#14 -4293992#13 -4293992#12 -4293992#11 -4293992#10 -4293992#9 -4293992#8 -4293992#7 -4293992#6 24654957#0 24654957#1 365158944#0 365158944#1 -365158944#1"/>
    </vehicle>
    <vehicle id="18" depart="18.00">
        <route edges="80303455#0 4039896#4 4039896#5 4039896#6 4039896#7 566475377#0 566475377#1 190627546 184551793#0 184551793#1 365158942 642898830#0 642898830#1 642898830#2 642901742#0 642901742#1 642901742#2 626668696#0 626668696#1 626668696#2 626668696#3 626668696#4 643131004#0 643131004#1 642910715#0 642910715#1 642910715#2 642910715#3 642910715#4 642910715#5 643134324#0 643134324#1 643134324#2 642913230#0 642913230#1 642913230#2 642913230#3 642913230#4 642913230#5 642913230#6 642913230#7 642913230#8 642915295#0 642915295#1 517322729 330448965 331135226"/>
    </vehicle>
    <vehicle id="19" depart="19.00">
        <route edges="51498241#2 23819963#3 23819963#4 23819963#5 23819963#6 23819963#7 69114049 642727566 626668696#2 626668696#3 626668696#4 643131004#0 643131004#1 642910715#0 642910715#1 642910715#2 642910715#3 642910715#4 642910715#5 643134324#0 643134324#1 643134324#2 642913230#0 642913230#1 642913230#2 642913230#3 642913230#4 642913230#5 642913230#6 -642913230#6"/>
    </vehicle>
    <vehicle id="20" depart="20.00">
        <route edges="-161357555#1 161357555#1 161357555#2 161357555#3 161357555#4 161357555#5 161357555#6 161357555#7 161357555#8 68986688#6 68986688#7 68986688#0 319899941#0 319899941#1"/>
    </vehicle>
    <vehicle id="21" depart="21.00">
        <route edges="4039129#1 -4039129#1 -4039129#0 -566475379#1 -566475379#0 -566475380#2 -566475380#1 138279710#2 138279710#3 566475376#0 566475376#1 4082012 -4039896#7 -4039896#6 -4039896#5 -4039896#4 4039896#4"/>
    </vehicle>
    <vehicle id="22" depart="22.00">
        <route edges="4444151#1 4450686#10 4450686#11 190627544#0 190627544#1 193465143 193476880 314456037 190627546 -31544813#1 -31544813#0 -564199960#7 -564199960#6 -564199960#5 -564199960#4 -564199960#3 -564199960#2 -564199960#1 -564199960#0"/>
    </vehicle>
    <vehicle id="23" depart="23.00">
        <route edges="4942434 -83724071#2 -83724071#1 -83724071#0 70736939 68907549#0 68907549#1 68907549#2 68907549#3 68907549#4 68907549#5 565522607#0 565522607#1 362231920 142321476 -642915295#1 -642915295#0 -642913230#8 -642913230#7 -642913230#6 -642913230#5 -642913230#4 -642913230#3 -642913230#2 -642913230#1 -642913230#0 -643134324#2 643134324#2"/>
    </vehicle>
    <vehicle id="24" depart="24.00">
        <route edges="4444157#0 4444157#1 4444157#2 4444157#3 -4039129#1 -4039129#0 -566475379#1 -566475379#0 -566475380#2 -566475380#1 -566475380#0 190627544#1 193465143 193476880 314456037 190627546 184551793#0 184551793#1 365158942 642898830#0 642898830#1 642898830#2 642901742#0 642901742#1 642901742#2 626668696#0 626668696#1 626668696#2 626668696#3 626668696#4 643131004#0 643131004#1 642910715#0 642910715#1 642910715#2 642910715#3 642910715#4 642910715#5 643134324#0 643134324#1 643134324#2 642913230#0 642913230#1 642913230#2 642913230#3 642913230#4 642913230#5 642913230#6 642913230#7 642913230#8 642915295#0 642915295#1 517322729 4294052 69353880#0 69353880#1"/>
    </vehicle>
    <vehicle id="25" depart="25.00">
        <route edges="-161357555#1 -161357555#0 -502174127#2 -502174127#1 -502174127#0 -566475381#1 -566475381#0 -24027319#3 -24027319#2 -24027319#1 -24027319#0 503103507 522266410 190627544#0 190627544#1 193465143 193476880 314456037 190627546 184551793#0 184551793#1 24931206#0 24931206#1"/>
    </vehicle>
    <vehicle id="26" depart="26.00">
        <route edges="-4293992#15 4293992#15 4293992#16 4293992#17 642910715#0 642727556 4941938#0 4941938#1 4941938#2 4941938#3 4941938#4 4941938#5 4941938#6 4941938#7 24911219#1 24911252 52026462#0 52026462#1 52026462#2 17067845#0 17067845#1 83724071#0 83724071#1 83724071#2 -83724071#2"/>
    </vehicle>
    <vehicle id="27" depart="27.00">
        <route edges="564199960#0 564199960#1 564199960#2 564199960#3 564199960#4 564199960#5 564199960#6 564199960#7 294804941#0 294804941#1 294804941#2 294804941#3 294804941#4 566475374#0 566475374#1 566475374#2 642901742#0 642901742#1 642901742#2 626668696#0 626668696#1 626668696#2 626668696#3 626668696#4 643131004#0 643131004#1 642910715#0 642910715#1 642910715#2 642910715#3 642910715#4 642910715#5 643134324#0 643134324#1 643134324#2 642913230#0 642913230#1 642913230#2 642913230#3 642913230#4 642913230#5 642913230#6 642913230#7 642913230#8 642915295#0 642915295#1 517322729 330448965 331135226 4294035 365158940#0 365158940#1 365158940#2 365158940#3"/>
    </vehicle>
    <vehicle id="28" depart="28.00">
        <route edges="185537045#1 185537045#2 41872851#3 41872851#4 41872851#5 27245953 -27245953"/>
    </vehicle>
    <vehicle id="29" depart="29.00">
        <route edges="-314456033#0 314456040#0 314456040#1 314456040#2 314456040#3 566475381#0 566475381#1 502174127#0 502174127#1 502174127#2 161357555#0 161357555#1 161357555#2 161357555#3 161357555#4 161357555#5 161357555#6 161357555#7 161357555#8 68986688#6 68986688#7 68986688#0 319899941#0 319899941#1 319899941#2 319899941#3 4942541#0 4942541#1 488561496 488561506 488561490#0 488561490#1 488561490#2 24027250#0 24027250#1 24027250#2 24027250#3 24027250#4"/>
    </vehicle>
    <vehicle id="30" depart="30.00">
        <route edges="488561493#3 28228767#0 28228767#1 28228767#2 83724048 190627543 -71505096#7 -71505096#6 -71505096#5 -71505096#4 34378247#3 34378247#4 566475371#0 566475371#1 566475371#2 626668696#2 626668696#3 626668696#4 642727563 4293996#0 4293996#1 4293996#2 4293996#3 4293996#4 4293996#5 4293946 69674564#0 69674564#1 69674564#2 69674564#3 24931213 -31544817#11 -31544817#10 -31544817#9 4293948 62164880#3"/>
    </vehicle>
    <vehicle id="31" depart="31.00">
        <route edges="161357555#7 -161357555#7 -161357555#6 -161357555#5 -161357555#4 -161357555#3 -161357555#2 -161357555#1 -161357555#0 -502174127#2 -502174127#1 -502174127#0 -566475381#1 -566475381#0 -24027319#3 -24027319#2 -24027319#1 -24027319#0 503103507 522266410 190627544#0 190627544#1 193465143 193476880 314456037"/>
    </vehicle>
    <vehicle id="32" depart="32.00">
        <route edges="8413406 26589107#3 8413402#0 8413402#1 630455864#2 470987535#0 470987535#1 470987535#2 470987535#3 470987535#4 470987535#5 470987535#6 470987535#7 470987535#8 544549304#0 544549304#1 193476880 314456037 190627546 184551793#0 184551793#1 365158942 193465140 503103508 24027319#0 24027319#1 24027319#2 24027319#3 566475381#0 566475381#1 502174127#0 502174127#1 502174127#2 -24944197#1 34378247#0"/>
    </vehicle>
    <vehicle id="33" depart="33.00">
        <route edges="-365158938#1 365158938#1 4293992#6 4293992#7 4293992#8 4293992#9 4293992#10 4293992#11 4293992#12 4293992#13 4293992#14 4293992#15 4293992#16 4293992#17 -643131004#1 -643131004#0 -626668696#4 -626668696#3 -626668696#2 -626668696#1 -626668696#0 -642901742#2 -642901742#1 -642901742#0 -642898830#2 -642898830#1 -642898830#0 193465140 503103508 503103507 522266410 190627544#0 190627544#1 44864462#0"/>
    </vehicle>
    <vehicle id="34" depart="34.00">
        <route edges="28228767#0 28228767#1 28228767#2 83724048 190627543 -71505096#7 -71505096#6 -71505096#5 -71505096#4 34378247#3 34378247#4 566475371#0 566475371#1 566475371#2 626668696#2 626668696#3 626668696#4 642727563 4293996#0 4293996#1 4293996#2 4293996#3 4293996#4 4293996#5 4293946 69674564#0 69674564#1 69674564#2 69674564#3 24931213 -31544817#11 -31544817#10 -31544817#9 23819963#0"/>
    </vehicle>
    <vehicle id="35" depart="35.00">
        <route edges="69325369#5 69325369#6 69325369#7 69325369#8 4293992#12 4293992#13 4293992#14 4293992#15 4293992#16 4293992#17 642910715#0 642727556 4941938#0 4941938#1 4941938#2 4941938#3 4941938#4 4941938#5 4941938#6 4941938#7 24911219#1 5103393 83724048 24911231#0 24911231#1 24911231#2 24911231#3 24911231#4 24944197#0 24944197#1 24027327#0 24027327#1 24027327#2 24027327#3 24027327#4 24027327#5 4082035 364650614 364649040 70223332#0 70223332#1 70223330#0 70223330#1"/>
    </vehicle>
    <vehicle id="36" depart="36.00">
        <route edges="5096930#2 5096930#3 5096930#4 5096930#5 5096930#6 366984752#3 31544800#0 31544800#1 314456037 190627546 184551793#0 184551793#1 365158942 642898830#0 642898830#1 642898830#2 642901742#0 642901742#1 642901742#2 626668696#0 626668696#1 626668696#2 626668696#3"/>
    </vehicle>
    <vehicle id="37" depart="37.00">
        <route edges="4293992#0 4293992#1 4293992#2 4293992#3 4293992#4 4293992#5 4293992#6 4293992#7 4293992#8 4293992#9 4293992#10 4293992#11 4293992#12 4293992#13 4293992#14 4293992#15 4293992#16 4293992#17 -643131004#1 -643131004#0 -626668696#4 -626668696#3 -626668696#2"/>
    </vehicle>
    <vehicle id="38" depart="38.00">
        <route edges="17045818 17045774 27245432 470987535#6 470987535#7 470987535#8 544549304#0 544549304#1 193476880 314456037 190627546 184551793#0 184551793#1 365158942 193465140 503103508 503103507 522266410 190627544#0 566475380#0 566475380#1 566475380#2 24841435 403892253#0"/>
    </vehicle>
    <vehicle id="39" depart="39.00">
        <route edges="27245953 -27245953 4082037 27245956#0 27245956#1 27245956#2 27245956#3 27245956#4 4450686#0 4450686#1 4444157#0 4444157#1 4444157#2 4444157#3 4444157#4 4444157#5 4444157#6 4444157#7 4444157#8 4472299#0 4472299#1 -4472299#1"/>
    </vehicle>
    <vehicle id="40" depart="40.00">
        <route edges="-31544800#0 31544800#0 31544800#1 314456037 190627546 184551793#0 184551793#1 365158942 193465140 503103508 503103507 4444183#0 4444183#1 41872851#0 41872851#1 41872851#2 41872851#3 41872851#4 41872851#5 27245953 569385773 4082035 364650614 364649040 70223332#0 70223332#1 4039136#0 4039136#1 27281287#0"/>
    </vehicle>
    <vehicle id="41" depart="41.00">
        <route edges="-71505096#5 -71505096#4 34378247#3 34378247#4 566475371#0 566475371#1 566475371#2 626668696#2 626668696#3 626668696#4 643131004#0 643131004#1 -4293992#17 -4293992#16 -4293992#15 -4293992#14 -4293992#13 -4293992#12 -4293992#11 -4293992#10 -4293992#9 -4293992#8 -4293992#7 -4293992#6 24654957#0 24654957#1 4294005#0 4294005#1 4294005#2 4294005#3 4294007#1 4294007#2 4294007#3 4294007#4 4294007#5"/>
    </vehicle>
    <vehicle id="42" depart="42.00">
        <route edges="270569690#1 24911231#1 24911231#2 24911231#3 24911231#4 24944197#0 24944197#1 -502174127#2 -502174127#1 -502174127#0 -566475381#1 -566475381#0 -24027319#3 -24027319#2 -24027319#1 -24027319#0 503103507 522266410 190627544#0 190627544#1 193465143 193476880 314456037 -566475377#1 -566475377#0 -4039896#7 -4039896#6 -4039896#5 -4039896#4 -4039896#3"/>
    </vehicle>
    <vehicle id="43" depart="43.00">
        <route edges="-365158944#5 -365158944#4 -365158944#3 -365158944#2 -365158944#1 69325369#5 69325369#6 24930618 4294013 34382673 4293946 69674564#0 69674564#1 69674564#2 69674564#3 24931213 -31544817#11 -31544817#10 -31544817#9 4293948 62164880#3 4293939 255477765#0 255477765#1 564199962 5096872#1 5096872#2 5096872#3"/>
    </vehicle>
    <vehicle id="44" depart="44.00">
        <route edges="4039896#2 4039896#3 4039896#4 4039896#5 4039896#6 4039896#7 566475375#0 566475375#1 294804941#0 31544817#3 31544817#4 31544817#5 31544817#6 4082017#0 4082017#1 24915257"/>
    </vehicle>
    <vehicle id="45" depart="45.00">
        <route edges="642910715#3 -642910715#3 -642910715#2 -642910715#1 -642910715#0 -4293992#17 -4293992#16 -4293992#15 -4293992#14 -4293992#13 -4293992#12 -4293992#11 4294013 34382673 4293946 69674564#0 69674564#1 69674564#2 69674564#3 24931213 -31544817#11 -31544817#10 31544817#10"/>
    </vehicle>
    <vehicle id="46" depart="46.00">
        <route edges="26589107#0 26589107#1 26589107#2 26589107#3 8413402#0 8413402#1 630455864#2 470987535#0 470987535#1 470987535#2 470987535#3 470987535#4 470987535#5 470987535#6 470987535#7 470987535#8 544549304#0 544549304#1 193476880 314456037 190627546 184551793#0 184551793#1 365158942 193465140 24911190#0 24911190#1 314456032#0 314456032#1 314456032#2 314456032#3 314456033#0 314456033#1 314456033#2 314456033#3 314456033#4 4082043#4"/>
    </vehicle>
    <vehicle id="48" depart="48.00">
        <route edges="-24841340 24841340 4450686#3 4450686#4 185537045#0 185537045#1 185537045#2 -41872851#2 4082038 24792898#0 24792898#1 24792898#2 24944224 71505096#7 24944221#0 24944221#1 24911219#0"/>
    </vehicle>
    <vehicle id="49" depart="49.00">
        <route edges="270569690#1 24911231#1 24911231#2 24911231#3 24911231#4 24944197#0 24944197#1 24027327#0 24027327#1 24027327#2 24027327#3 24027327#4 24027327#5 -569385773 -27245953 4082037 27245956#0 27245956#1 27245956#2 27245956#3 27245956#4 4450686#0 4450686#1 4444157#0 4444157#1 4444157#2 4444157#3 4444157#4 4444157#5"/>
    </vehicle>
    <vehicle id="50" depart="50.00">
        <route edges="566475371#0 566475371#1 566475371#2 -626668696#1 -626668696#0 -642901742#2 -642901742#1 -642901742#0 70187668#0 70187668#1 70187668#2 70187668#3 314456040#0 314456040#1 314456040#2 314456040#3 566475381#0 566475381#1 502174127#0 502174127#1 502174127#2 161357555#0 161357555#1 161357555#2 161357555#3 161357555#4 161357555#5 161357555#6 161357555#7 161357555#8 68986688#6 68986688#7 68986688#0 68986688#1 68986688#2 68986688#3 68986688#4 68986688#5"/>
    </vehicle>
    <vehicle id="51" depart="51.00">
        <route edges="-564199960#5 564199960#5 564199960#6 564199960#7 294804941#0 294804941#1 294804941#2 294804941#3 294804941#4 566475374#0 566475374#1 566475374#2 642901742#0 642901742#1 642901742#2 626668696#0 626668696#1 626668696#2 626668696#3 626668696#4 643131004#0 643131004#1 642910715#0 642910715#1 642910715#2 642910715#3 642910715#4 642910715#5 643134324#0 643134324#1 643134324#2 642913230#0 642913230#1 642913230#2 642913230#3 642913230#4 642913230#5 642913230#6 642913230#7 642913230#8 642915295#0 642915295#1 517322729 4294052 69353880#0 69353880#1 362231933#0 362231933#1 362231936"/>
    </vehicle>
    <vehicle id="52" depart="52.00">
        <route edges="68986688#1 68986688#2 68986688#3 68986688#4 68986688#5 68986688#6 68986688#7 68986688#0 319899941#0 319899941#1 319899941#2 319899941#3 164047642#0 164047642#1 164047642#2 164047642#3 164047642#4 164047642#5 -70736935 -330436158#1 -330436158#0 -28604061 -28604180 17067845#0 17067845#1 70736939 68907539#0 68907539#1 68907539#2 68907539#3 4941948#7"/>
    </vehicle>
    <vehicle id="53" depart="53.00">
        <route edges="31544817#9 -31544817#9 23819963#0 23819937#0 69674564#2 69674564#3"/>
    </vehicle>
    <vehicle id="54" depart="54.00">
        <route edges="488561490#1 488561505#0 488561505#1 488561505#2 488561493#0 488561493#1 488561493#2 488561493#3 28228767#0 28228767#1 28228767#2 83724048 190627543 -71505096#7 -71505096#6 -71505096#5 -71505096#4 34378247#3 34378247#4 566475371#0 566475371#1 566475371#2 626668696#2 626668696#3 626668696#4 643131004#0 643131004#1 642910715#0 642910715#1"/>
    </vehicle>
    <vehicle id="55" depart="55.00">
        <route edges="-5098491#0 5098491#0 5098491#1 5098494#1 4941948#2 4941948#3 4941948#4 4941948#5 4941948#6 4941948#7 4941948#8 4941948#9 4941948#10 4941948#11 4941948#12 4941948#13 4941948#14 4941940#4 4941940#5 4941940#6 -24911210#1 -24911210#0 24911205 83724048 24911231#0 24911231#1 24911231#2 24911231#3 24911231#4 24944197#0 24944197#1 24027327#0 24027327#1 24027327#2 24027327#3 24027327#4 24027327#5 -569385773 -27245953 4082037 27245956#0 27245956#1 27245956#2 4472353#0 4472353#1 185537045#2"/>
    </vehicle>
    <vehicle id="56" depart="56.00">
        <route edges="25095073#3 642915295#0 -642915295#0 -642913230#8 -642913230#7 -642913230#6 -642913230#5 -642913230#4 -642913230#3 -642913230#2 -642913230#1 -642913230#0 -643134324#2 -643134324#1 -643134324#0 -642910715#5 -642910715#4 -642910715#3 -642910715#2 -642910715#1 -642910715#0 -643131004#1 -643131004#0 -626668696#4 -626668696#3 -626668696#2 -626668696#1 -626668696#0 -642901742#2 -642901742#1 -642901742#0 -642898830#2 -642898830#1 -642898830#0 193465140 503103508 503103507 522266410 190627544#0 566475380#0 566475380#1 566475380#2 566475379#0 566475379#1 4039129#0 4039129#1 4447081#0 4447081#1 561060586 -561060586"/>
    </vehicle>
    <vehicle id="57" depart="57.00">
        <route edges="4444185#0 4472353#1 185537045#2 -41872851#2 -41872851#1 -41872851#0 -4444183#1 -4444183#0 522266410 190627544#0 190627544#1 193465143 193476880 314456037 190627546 184551793#0 31544817#0 31544817#1 31544817#2 31544817#3 31544817#4 31544817#5 31544817#6 31544817#7 31544817#8 4293948"/>
    </vehicle>
    <vehicle id="58" depart="58.00">
        <route edges="-314456033#2 -314456033#1 -314456033#0 -314456032#3 -314456032#2 -314456032#1 -314456032#0 -24911190#1 -24911190#0 503103508 503103507 522266410 190627544#0 190627544#1 44864462#0 44864462#1 44864462#2 543476237#0 543476237#1 543476237#2 24792892#0"/>
    </vehicle>
    <vehicle id="59" depart="59.00">
        <route edges="4082014#2 24915806 4293940#2 -31544817#4 -31544817#3 -31544817#2 -31544817#1 -31544817#0 184551793#1 365158942 193465140 503103508 503103507 522266410 190627544#0 566475380#0 566475380#1 566475380#2 566475379#0 566475379#1 4039129#0 4039129#1 4447081#0 4447081#1 4447081#2 4472304#0 4472304#1 4472304#2 4472344#1 4472344#2"/>
    </vehicle>
    <vehicle id="60" depart="60.00">
        <route edges="190627543 -71505096#7 -71505096#6 -71505096#5 -71505096#4 34378247#3 34378247#4 566475371#0 566475371#1 566475371#2 626668696#2 626668696#3 626668696#4 643131004#0 643131004#1 -4293992#17 -4293992#16 -4293992#15 -4293992#14 -4293992#13 -4293992#12 -4293992#11 -4293992#10"/>
    </vehicle>
    <vehicle id="61" depart="61.00">
        <route edges="22605479 4941938#4 4941938#5 68995797#0 68995797#1"/>
    </vehicle>
    <vehicle id="62" depart="62.00">
        <route edges="26588610#0 26588610#1 26588964 17045774 27245432 470987535#6 470987535#7 470987535#8 544549304#0 544549304#1 193476880 314456037 190627546 184551793#0 184551793#1 365158942 642898830#0 642898830#1 642898830#2 70187668#0 70187668#1 70187668#2"/>
    </vehicle>
    <vehicle id="63" depart="63.00">
        <route edges="4444157#1 4444157#2 4444157#3 -4039129#1 -4039129#0 -566475379#1 -566475379#0 -566475380#2 -566475380#1 -566475380#0 190627544#1 193465143 193476880 314456037 190627546 184551793#0 184551793#1 365158942 642898830#0 642898830#1 642898830#2 642901742#0 642901742#1 642901742#2 626668696#0 626668696#1 626668696#2 626668696#3 626668696#4 643131004#0 643131004#1 -4293992#17 -4293992#16 -4293992#15 -4293992#14 -4293992#13 -4293992#12 -4293992#11 -4293992#10 -4293992#9 -4293992#8 -4293992#7 -4293992#6 -4293992#5 -4293992#4 -4293992#3 -4293992#2 4294007#0"/>
    </vehicle>
    <vehicle id="64" depart="64.00">
        <route edges="-553772532 -24911210#1 -24911210#0 24911205 83724048 190627543 -71505096#7 -24944224 24944224"/>
    </vehicle>
    <vehicle id="65" depart="65.00">
        <route edges="-626668696#1 -626668696#0 -642901742#2 -642901742#1 -642901742#0 -642898830#2 -642898830#1 -642898830#0 193465140 503103508 503103507 522266410 190627544#0 190627544#1 44864462#0 44864462#1 44864462#2"/>
    </vehicle>
    <vehicle id="66" depart="66.00">
        <route edges="4293940#0 4293943 24915257 -31544817#7 24915245 79368448 -4082016 51498241#2 23819963#3 23819963#4 23819963#5 23819963#6 23819963#7 69114049 642727566 626668696#2 626668696#3 626668696#4 643131004#0 643131004#1 642910715#0 642910715#1 642910715#2 642910715#3 642910715#4 642910715#5 643134324#0 643134324#1 643134324#2 642913230#0 642913230#1 642913230#2 642913230#3 642913230#4 642913230#5 642913230#6 642913230#7 642913230#8 642915295#0 642915295#1 517322729 4294052 69353880#0 69353880#1 362231933#0 362231933#1 362231936"/>
    </vehicle>
    <vehicle id="67" depart="67.00">
        <route edges="-553772532 -24911210#1 -24911210#0 24911205 83724048 190627543 -71505096#7 -71505096#6 -71505096#5 -71505096#4 -71505096#3 -71505096#2 -71505096#1 -71505096#0 -314456033#4 -314456033#3 -314456033#2 -314456033#1 -314456033#0 -314456032#3 -314456032#2 -314456032#1 -314456032#0 -24911190#1 -24911190#0 503103508 503103507 522266410 190627544#0 190627544#1 193465143 193476880 314456037 190627546 184551793#0 31544817#0 31544817#1 31544817#2 -31544817#2"/>
    </vehicle>
    <vehicle id="68" depart="68.00">
        <route edges="255477765#0 255477765#1 564199960#0 564199960#1 564199960#2 4082014#0 4082014#1 4082014#2 24915806"/>
    </vehicle>
    <vehicle id="70" depart="70.00">
        <route edges="-71505096#0 71505096#0 71505096#1 71505096#2 71505096#3 71505096#4 71505096#5 71505096#6 71505096#7 24944221#0 24944221#1 24911219#0 24911219#1 83724056 24911210#0 24911210#1 553772532 -330436158#1 -330436158#0 -28604061 68806765"/>
    </vehicle>
    <vehicle id="71" depart="71.00">
        <route edges="8413402#1 630455864#2 470987535#0 470987535#1 470987535#2 470987535#3 470987535#4 470987535#5 470987535#6 470987535#7 470987535#8 544549304#0 544549304#1 193476880 314456037 190627546 184551793#0 184551793#1 365158942 193465140 24911190#0 24911190#1 314456032#0 314456032#1 314456032#2 314456032#3 314456033#0 314456033#1 314456033#2 -314456033#2"/>
    </vehicle>
    <vehicle id="72" depart="72.00">
        <route edges="71505096#0 -71505096#0 4082043#4 24792898#1 4082041 70192450 502174127#2 161357555#0 161357555#1 161357555#2 161357555#3 161357555#4 161357555#5 161357555#6 161357555#7 161357555#8 68986688#6 68986688#7 68986688#0 319899941#0 319899941#1 319899941#2 319899941#3 4942541#0 4942541#1 488561496 488561506 488561490#0 488561490#1 488561505#0 488561505#1 488561505#2 24970368 333339527"/>
    </vehicle>
    <vehicle id="73" depart="73.00">
        <route edges="68907549#3 68907549#4 68907549#5 565522607#0 565522607#1 362231920 142321476 -642915295#1 -642915295#0 -642913230#8 -642913230#7 -642913230#6 -642913230#5 -642913230#4 -642913230#3 -642913230#2 -642913230#1 -642913230#0 -365158944#5 -365158944#4 -365158944#3 -365158944#2 -365158944#1 69325369#5 69325369#6 24930618 4294013 34382673 4293946 69674564#0 69674564#1 69674564#2 69674564#3"/>
    </vehicle>
    <vehicle id="74" depart="74.00">
        <route edges="4472353#0 4472353#1 185537045#2 -41872851#2 4082038 24792898#0 -24792898#0"/>
    </vehicle>
    <vehicle id="75" depart="75.00">
        <route edges="365158944#5 -643134324#2 -643134324#1 -643134324#0 -642910715#5 -642910715#4 -642910715#3 -642910715#2 -642910715#1 642727556 4941938#0 4941938#1 4941938#2 4941938#3 4941938#4 4941938#5 4941938#6 4941938#7 24911219#1 5103393 83724048 24911231#0 24911231#1 24911231#2 24911231#3 24911231#4 24944197#0 24944197#1 161357555#0 161357555#1 161357555#2 161357555#3"/>
    </vehicle>
    <vehicle id="76" depart="76.00">