<?xml version="1.0" encoding="UTF-8"?>
<!-- generated on 2018-11-22 17:55:28.180000 by $Id$
  options: -n D:\LocalData\a022927\thesis_Lu\TP_ENPC\osm_Paris\paris.net.xml -o D:\LocalData\a022927\thesis_Lu\TP_ENPC\osm_Paris\paris.trips.xml -r D:\LocalData\a022927\thesis_Lu\TP_ENPC\osm_Paris\paris.rou.xml -b 0 -e 1000
-->
<routes xmlns:xsi="http://www.w3.org/2001/XMLSchema-instance" xsi:noNamespaceSchemaLocation="http://sumo.dlr.de/xsd/routes_file.xsd">
    <trip id="0" depart="0.00" from="27245904#1" to="-70736941#1"/>
    <trip id="1" depart="1.00" from="26588610#4" to="643134324#0"/>
    <trip id="2" depart="2.00" from="-25034670" to="23819963#3"/>
    <trip id="3" depart="3.00" from="4293940#1" to="565522607#0"/>
    <trip id="4" depart="4.00" from="566475377#0" to="24911264#0"/>
    <trip id="5" depart="5.00" from="28228767#0" to="23803906"/>
    <trip id="6" depart="6.00" from="69325369#3" to="4472335#1"/>
    <trip id="7" depart="7.00" from="-314456033#1" to="365158940#3"/>
    <trip id="8" depart="8.00" from="28228767#1" to="4942434"/>
    <trip id="9" depart="9.00" from="5096930#4" to="-566475379#1"/>
    <trip id="10" depart="10.00" from="-83724071#2" to="488561499#1"/>
    <trip id="11" depart="11.00" from="4082016" to="69325369#6"/>
    <trip id="12" depart="12.00" from="564199960#5" to="-161357555#6"/>
    <trip id="13" depart="13.00" from="4444157#0" to="83724048"/>
    <trip id="14" depart="14.00" from="23803906" to="70736943#1"/>
    <trip id="15" depart="15.00" from="4450686#6" to="27245432"/>
    <trip id="16" depart="16.00" from="5096875#1" to="27245956#1"/>
    <trip id="17" depart="17.00" from="14163843#2" to="-365158944#1"/>
    <trip id="18" depart="18.00" from="80303455#0" to="331135226"/>
    <trip id="19" depart="19.00" from="51498241#2" to="-642913230#6"/>
    <trip id="20" depart="20.00" from="-161357555#1" to="319899941#1"/>
    <trip id="21" depart="21.00" from="4039129#1" to="4039896#4"/>
    <trip id="22" depart="22.00" from="4444151#1" to="-564199960#0"/>
    <trip id="23" depart="23.00" from="4942434" to="643134324#2"/>
    <trip id="24" depart="24.00" from="4444157#0" to="69353880#1"/>
    <trip id="25" depart="25.00" from="-161357555#1" to="24931206#1"/>
    <trip id="26" depart="26.00" from="-4293992#15" to="-83724071#2"/>
    <trip id="27" depart="27.00" from="564199960#0" to="365158940#3"/>
    <trip id="28" depart="28.00" from="185537045#1" to="-27245953"/>
    <trip id="29" depart="29.00" from="-314456033#0" to="24027250#4"/>
    <trip id="30" depart="30.00" from="488561493#3" to="62164880#3"/>
    <trip id="31" depart="31.00" from="161357555#7" to="314456037"/>
    <trip id="32" depart="32.00" from="8413406" to="34378247#0"/>
    <trip id="33" depart="33.00" from="-365158938#1" to="44864462#0"/>
    <trip id="34" depart="34.00" from="28228767#0" to="23819963#0"/>
    <trip id="35" depart="35.00" from="69325369#5" to="70223330#1"/>
    <trip id="36" depart="36.00" from="5096930#2" to="626668696#3"/>
    <trip id="37" depart="37.00" from="4293992#0" to="-626668696#2"/>
    <trip id="38" depart="38.00" from="17045818" to="403892253#0"/>
    <trip id="39" depart="39.00" from="27245953" to="-4472299#1"/>
    <trip id="40" depart="40.00" from="-31544800#0" to="27281287#0"/>
    <trip id="41" depart="41.00" from="-71505096#5" to="4294007#5"/>
    <trip id="42" depart="42.00" from="270569690#1" to="-4039896#3"/>
    <trip id="43" depart="43.00" from="-365158944#5" to="5096872#3"/>
    <trip id="44" depart="44.00" from="4039896#2" to="24915257"/>
    <trip id="45" depart="45.00" from="642910715#3" to="31544817#10"/>
    <trip id="46" depart="46.00" from="26589107#0" to="4082043#4"/>
    <trip id="47" depart="47.00" from="642898830#1" to="5103395#2"/>
    <trip id="48" depart="48.00" from="-24841340" to="24911219#0"/>
    <trip id="49" depart="49.00" from="270569690#1" to="4444157#5"/>
    <trip id="50" depart="50.00" from="566475371#0" to="68986688#5"/>
    <trip id="51" depart="51.00" from="-564199960#5" to="362231936"/>
    <trip id="52" depart="52.00" from="68986688#1" to="4941948#7"/>
    <trip id="53" depart="53.00" from="31544817#9" to="69674564#3"/>
    <trip id="54" depart="54.00" from="488561490#1" to="642910715#1"/>
    <trip id="55" depart="55.00" from="-5098491#0" to="185537045#2"/>
    <trip id="56" depart="56.00" from="25095073#3" to="-561060586"/>
    <trip id="57" depart="57.00" from="4444185#0" to="4293948"/>
    <trip id="58" depart="58.00" from="-314456033#2" to="24792892#0"/>
    <trip id="59" depart="59.00" from="4082014#2" to="4472344#2"/>
    <trip id="60" depart="60.00" from="190627543" to="-4293992#10"/>
    <trip id="61" depart="61.00" from="22605479" to="68995797#1"/>
    <trip id="62" depart="62.00" from="26588610#0" to="70187668#2"/>
    <trip id="63" depart="63.00" from="4444157#1" to="4294007#0"/>
    <trip id="64" depart="64.00" from="-553772532" to="24944224"/>
    <trip id="65" depart="65.00" from="-626668696#1" to="44864462#2"/>
    <trip id="66" depart="66.00" from="4293940#0" to="362231936"/>
    <trip id="67" depart="67.00" from="-553772532" to="-31544817#2"/>
    <trip id="68" depart="68.00" from="255477765#0" to="24915806"/>
    <trip id="69" depart="69.00" from="64941056#4" to="488561505#1"/>
    <trip id="70" depart="70.00" from="-71505096#0" to="68806765"/>
    <trip id="71" depart="71.00" from="8413402#1" to="-314456033#2"/>
    <trip id="72" depart="72.00" from="71505096#0" to="333339527"/>
    <trip id="73" depart="73.00" from="68907549#3" to="69674564#3"/>
    <trip id="74" depart="74.00" from="4472353#0" to="-24792898#0"/>
    <trip id="75" depart="75.00" from="365158944#5" to="161357555#3"/>
    <trip id="76" depart="76.00" from="28604201" to="-161357555#6"/>
    <trip id="77" depart="77.00" from="470987535#2" to="24027250#4"/>
    <trip id="78" depart="78.00" from="84865087#0" to="25095051#1"/>
    <trip id="79" depart="79.00" from="642913230#7" to="4293940#2"/>
    <trip id="80" depart="80.00" from="5098491#1" to="24944197#0"/>
    <trip id="81" depart="81.00" from="4450686#1" to="4293992#17"/>
    <trip id="82" depart="82.00" from="190627546" to="4941948#10"/>
    <trip id="83" depart="83.00" from="564199960#2" to="488561490#2"/>
    <trip id="84" depart="84.00" from="-31544800#0" to="488561509#2"/>
    <trip id="85" depart="85.00" from="365158934" to="365158939"/>
    <trip id="86" depart="86.00" from="41873007#1" to="23819963#0"/>
    <trip id="87" depart="87.00" from="-31544817#3" to="4082014#2"/>
    <trip id="88" depart="88.00" from="24911190#1" to="5096873"/>
    <trip id="89" depart="89.00" from="5096930#2" to="-31544817#1"/>
    <trip id="90" depart="90.00" from="-4293992#14" to="543476237#4"/>
    <trip id="91" depart="91.00" from="-642910715#5" to="-564199960#4"/>
    <trip id="92" depart="92.00" from="4444157#1" to="-69167386#0"/>
    <trip id="93" depart="93.00" from="364649040" to="4941948#8"/>
    <trip id="94" depart="94.00" from="24944197#1" to="4444157#2"/>
    <trip id="95" depart="95.00" from="-642913230#6" to="-24027319#3"/>
    <trip id="96" depart="96.00" from="69325369#3" to="26588610#5"/>
    <trip id="97" depart="97.00" from="564199960#0" to="365158944#3"/>
    <trip id="98" depart="98.00" from="566475379#1" to="-637864469"/>
    <trip id="99" depart="99.00" from="4293992#8" to="70223330#0"/>
    <trip id="100" depart="100.00" from="24911231#1" to="24911190#1"/>
    <trip id="101" depart="101.00" from="314456033#4" to="25095051#1"/>
    <trip id="102" depart="102.00" from="626668696#0" to="24911231#0"/>
    <trip id="103" depart="103.00" from="31544817#3" to="69114049"/>
    <trip id="104" depart="104.00" from="27245904#2" to="64941056#3"/>
    <trip id="105" depart="105.00" from="40795060#2" to="4941948#10"/>
    <trip id="106" depart="106.00" from="24027319#0" to="-161357555#2"/>
    <trip id="107" depart="107.00" from="-365158938#0" to="164047642#1"/>
    <trip id="108" depart="108.00" from="294804941#3" to="4294007#4"/>
    <trip id="109" depart="109.00" from="-642913230#6" to="26589107#2"/>
    <trip id="110" depart="110.00" from="-161357555#2" to="569385773"/>
    <trip id="111" depart="111.00" from="31544813#0" to="566475380#0"/>
    <trip id="112" depart="112.00" from="-197336186#1" to="4082014#1"/>
    <trip id="113" depart="113.00" from="488561496" to="24027250#4"/>
    <trip id="114" depart="114.00" from="25034670" to="24931206#1"/>
    <trip id="115" depart="115.00" from="642913230#8" to="4941948#5"/>
    <trip id="116" depart="116.00" from="17045774" to="-642913230#3"/>
    <trip id="117" depart="117.00" from="138279710#1" to="14163844"/>
    <trip id="118" depart="118.00" from="68907539#1" to="642913230#8"/>
    <trip id="119" depart="119.00" from="4294005#3" to="-24654957#1"/>
    <trip id="120" depart="120.00" from="27245956#4" to="556784599"/>
    <trip id="121" depart="121.00" from="-31544800#0" to="-164047642#1"/>
    <trip id="122" depart="122.00" from="25095073#1" to="-24792898#2"/>
    <trip id="123" depart="123.00" from="-642898830#2" to="161357555#1"/>
    <trip id="124" depart="124.00" from="-164047642#1" to="-31544817#2"/>
    <trip id="125" depart="125.00" from="4082041" to="-28604003"/>
    <trip id="126" depart="126.00" from="-642913230#5" to="4293992#17"/>
    <trip id="127" depart="127.00" from="4444185#1" to="319899941#1"/>
    <trip id="128" depart="128.00" from="-365158944#5" to="71505096#7"/>
    <trip id="129" depart="129.00" from="5096930#1" to="83724071#2"/>
    <trip id="130" depart="130.00" from="4293996#0" to="8413426#1"/>
    <trip id="131" depart="131.00" from="28604180" to="41872851#1"/>
    <trip id="132" depart="132.00" from="51498241#1" to="566475374#0"/>
    <trip id="133" depart="133.00" from="-70736941#3" to="79368432"/>
    <trip id="134" depart="134.00" from="4294007#1" to="566475377#1"/>
    <trip id="135" depart="135.00" from="5103395#4" to="560720450#3"/>
    <trip id="136" depart="136.00" from="4293948" to="-314456033#1"/>
    <trip id="137" depart="137.00" from="543476237#3" to="-161357555#0"/>
    <trip id="138" depart="138.00" from="164047642#3" to="-4444183#0"/>
    <trip id="139" depart="139.00" from="-27245956#1" to="-319899941#0"/>
    <trip id="140" depart="140.00" from="25095073#1" to="-31544845"/>
    <trip id="141" depart="141.00" from="28604006" to="26588610#9"/>
    <trip id="142" depart="142.00" from="365158940#0" to="64941056#3"/>
    <trip id="143" depart="143.00" from="24027327#5" to="24027327#4"/>
    <trip id="144" depart="144.00" from="4444157#3" to="630455864#2"/>
    <trip id="145" depart="145.00" from="-330436158#0" to="-4293992#15"/>
    <trip id="146" depart="146.00" from="-24911190#1" to="-24027319#1"/>
    <trip id="147" depart="147.00" from="4039896#2" to="4294007#5"/>
    <trip id="148" depart="148.00" from="365158944#3" to="4294035"/>
    <trip id="149" depart="149.00" from="41872851#5" to="31544817#9"/>
    <trip id="150" depart="150.00" from="-17067845#1" to="626668696#4"/>
    <trip id="151" depart="151.00" from="24944221#0" to="-4039896#6"/>
    <trip id="152" depart="152.00" from="23819963#5" to="4293992#4"/>
    <trip id="153" depart="153.00" from="-17067845#1" to="68995797#1"/>
    <trip id="154" depart="154.00" from="4294000#1" to="642901742#2"/>
    <trip id="155" depart="155.00" from="366984752#0" to="70223332#1"/>
    <trip id="156" depart="156.00" from="-197340113" to="4941951#1"/>
    <trip id="157" depart="157.00" from="4941938#5" to="366984752#2"/>
    <trip id="158" depart="158.00" from="164047642#2" to="-5098491#0"/>
    <trip id="159" depart="159.00" from="5098494#1" to="4039129#1"/>
    <trip id="160" depart="160.00" from="4941948#10" to="-41872851#1"/>
    <trip id="161" depart="161.00" from="4941940#2" to="4942516#2"/>
    <trip id="162" depart="162.00" from="5096935" to="-27245956#4"/>
    <trip id="163" depart="163.00" from="69325369#6" to="40795060#0"/>
    <trip id="164" depart="164.00" from="69114043#4" to="314456033#1"/>
    <trip id="165" depart="165.00" from="4039116" to="-4293992#12"/>
    <trip id="166" depart="166.00" from="-24792898#1" to="642913230#4"/>
    <trip id="167" depart="167.00" from="68986688#6" to="-41872851#0"/>
    <trip id="168" depart="168.00" from="24911264#1" to="28604003"/>
    <trip id="169" depart="169.00" from="69114043#3" to="4293996#0"/>
    <trip id="170" depart="170.00" from="24915806" to="17067973#0"/>
    <trip id="171" depart="171.00" from="5103395#1" to="41872851#2"/>
    <trip id="172" depart="172.00" from="138277196" to="643134324#1"/>
    <trip id="173" depart="173.00" from="4472353#1" to="24654957#1"/>
    <trip id="174" depart="174.00" from="626668696#2" to="4450686#8"/>
    <trip id="175" depart="175.00" from="70223332#0" to="4941948#9"/>
    <trip id="176" depart="176.00" from="-365158944#2" to="330448964"/>
    <trip id="177" depart="177.00" from="561060586" to="80303455#3"/>
    <trip id="178" depart="178.00" from="366984752#3" to="69674564#0"/>
    <trip id="179" depart="179.00" from="553772533#1" to="8506275#1"/>
    <trip id="180" depart="180.00" from="31544800#1" to="52026462#1"/>
    <trip id="181" depart="181.00" from="-626668696#0" to="69325369#7"/>
    <trip id="182" depart="182.00" from="4444185#1" to="69325369#1"/>
    <trip id="183" depart="183.00" from="28604061" to="-71505096#2"/>
    <trip id="184" depart="184.00" from="24915257" to="-164047642#4"/>
    <trip id="185" depart="185.00" from="5096875#3" to="255477765#0"/>
    <trip id="186" depart="186.00" from="24027250#2" to="4039896#5"/>
    <trip id="187" depart="187.00" from="4941940#6" to="24911205"/>
    <trip id="188" depart="188.00" from="4082017#0" to="-25034670"/>
    <trip id="189" depart="189.00" from="4039136#0" to="5098494#1"/>
    <trip id="190" depart="190.00" from="4293939" to="24027209#0"/>
    <trip id="191" depart="191.00" from="5096959#0" to="-4039896#0"/>
    <trip id="192" depart="192.00" from="26589107#2" to="4293934"/>
    <trip id="193" depart="193.00" from="70736941#0" to="8413410#1"/>
    <trip id="194" depart="194.00" from="-365158944#5" to="4941940#3"/>
    <trip id="195" depart="195.00" from="470987533#0" to="4450686#10"/>
    <trip id="196" depart="196.00" from="365158944#5" to="23819963#3"/>
    <trip id="197" depart="197.00" from="5096875#2" to="642915295#1"/>
    <trip id="198" depart="198.00" from="4450686#0" to="330448966"/>
    <trip id="199" depart="199.00" from="-564199960#7" to="-642915295#1"/>
    <trip id="200" depart="200.00" from="4039896#7" to="20205692"/>
    <trip id="201" depart="201.00" from="365158940#1" to="34378247#0"/>
    <trip id="202" depart="202.00" from="40795060#6" to="4472304#2"/>
    <trip id="203" depart="203.00" from="-564199960#1" to="-70736941#0"/>
    <trip id="204" depart="204.00" from="24970368" to="4941948#8"/>
    <trip id="205" depart="205.00" from="-27245956#3" to="4941950"/>
    <trip id="206" depart="206.00" from="566475371#2" to="4039136#0"/>
    <trip id="207" depart="207.00" from="-642913230#3" to="4941948#8"/>
    <trip id="208" depart="208.00" from="4941949#1" to="24911264#1"/>
    <trip id="209" depart="209.00" from="642915295#1" to="4941938#3"/>
    <trip id="210" depart="210.00" from="331135226" to="25095073#0"/>
    <trip id="211" depart="211.00" from="28604238" to="4941948#6"/>
    <trip id="212" depart="212.00" from="68907539#3" to="68907539#1"/>
    <trip id="213" depart="213.00" from="32879779#1" to="365158933"/>
    <trip id="214" depart="214.00" from="-71505096#5" to="164047642#1"/>
    <trip id="215" depart="215.00" from="-24911210#0" to="-643134324#1"/>
    <trip id="216" depart="216.00" from="4450686#3" to="62164880#1"/>
    <trip id="217" depart="217.00" from="-4293992#7" to="27245904#4"/>
    <trip id="218" depart="218.00" from="395003092#2" to="365158938#0"/>
    <trip id="219" depart="219.00" from="365158944#4" to="-566475378"/>
    <trip id="220" depart="220.00" from="4942533" to="31544817#3"/>
    <trip id="221" depart="221.00" from="403892253#1" to="4293943"/>
    <trip id="222" depart="222.00" from="5096931" to="395003092#3"/>
    <trip id="223" depart="223.00" from="68995797#1" to="4472344#1"/>
    <trip id="224" depart="224.00" from="-161357555#6" to="-637864469"/>
    <trip id="225" depart="225.00" from="5103394#0" to="64941056#5"/>
    <trip id="226" depart="226.00" from="4447081#0" to="24915245"/>
    <trip id="227" depart="227.00" from="488561506" to="-4039896#0"/>
    <trip id="228" depart="228.00" from="24915806" to="27245904#2"/>
    <trip id="229" depart="229.00" from="4293992#5" to="-4293992#6"/>
    <trip id="230" depart="230.00" from="27245956#1" to="255477765#0"/>
    <trip id="231" depart="231.00" from="24792892#0" to="4293940#1"/>
    <trip id="232" depart="232.00" from="4293943" to="-365158944#1"/>
    <trip id="233" depart="233.00" from="4082035" to="5096959#1"/>
    <trip id="234" depart="234.00" from="40795060#7" to="27465317#0"/>
    <trip id="235" depart="235.00" from="31544813#1" to="294804941#3"/>
    <trip id="236" depart="236.00" from="365158938#1" to="25035013"/>
    <trip id="237" depart="237.00" from="-164047642#4" to="-4293992#13"/>
    <trip id="238" depart="238.00" from="502174127#0" to="26588610#6"/>
    <trip id="239" depart="239.00" from="314456040#3" to="164047642#4"/>
    <trip id="240" depart="240.00" from="4472344#1" to="26588610#9"/>
    <trip id="241" depart="241.00" from="330448966" to="332682194"/>
    <trip id="242" depart="242.00" from="4941940#5" to="4450686#0"/>
    <trip id="243" depart="243.00" from="4294009" to="24911264#1"/>
    <trip id="244" depart="244.00" from="4039896#4" to="-642901742#1"/>
    <trip id="245" depart="245.00" from="365158942" to="164047642#0"/>
    <trip id="246" depart="246.00" from="4444151#0" to="395003092#4"/>
    <trip id="247" depart="247.00" from="25095073#3" to="-27245956#2"/>
    <trip id="248" depart="248.00" from="27465317#2" to="68995797#1"/>
    <trip id="249" depart="249.00" from="395003092#6" to="-24027319#2"/>
    <trip id="250" depart="250.00" from="69114043#2" to="-330436158#0"/>
    <trip id="251" depart="251.00" from="4039129#0" to="14163844"/>
    <trip id="252" depart="252.00" from="161357555#7" to="4941948#5"/>
    <trip id="253" depart="253.00" from="4293940#0" to="71505096#7"/>
    <trip id="254" depart="254.00" from="4082012" to="25034670"/>
    <trip id="255" depart="255.00" from="4082043#0" to="4472298"/>
    <trip id="256" depart="256.00" from="8412454" to="314456040#1"/>
    <trip id="257" depart="257.00" from="332682194" to="4447081#2"/>
    <trip id="258" depart="258.00" from="4294035" to="561060586"/>
    <trip id="259" depart="259.00" from="25095073#0" to="-4293992#14"/>
    <trip id="260" depart="260.00" from="23819963#7" to="-553772533#1"/>
    <trip id="261" depart="261.00" from="83724048" to="4941948#5"/>
    <trip id="262" depart="262.00" from="68986688#3" to="-4293992#10"/>
    <trip id="263" depart="263.00" from="4039136#1" to="4472324"/>
    <trip id="264" depart="264.00" from="-4039896#2" to="4293940#2"/>
    <trip id="265" depart="265.00" from="34378247#0" to="24654957#0"/>
    <trip id="266" depart="266.00" from="488561499#0" to="4294005#0"/>
    <trip id="267" depart="267.00" from="-26588964" to="-4082014#0"/>
    <trip id="268" depart="268.00" from="314456032#1" to="26588610#6"/>
    <trip id="269" depart="269.00" from="4941938#4" to="-642910715#4"/>
    <trip id="270" depart="270.00" from="-4293992#13" to="488561490#0"/>
    <trip id="271" depart="271.00" from="470987535#0" to="-161357555#5"/>
    <trip id="272" depart="272.00" from="-71505096#6" to="362231920"/>
    <trip id="273" depart="273.00" from="-24911190#1" to="4293992#13"/>
    <trip id="274" depart="274.00" from="-164047642#3" to="62164880#6"/>
    <trip id="275" depart="275.00" from="4444185#0" to="-553772532"/>
    <trip id="276" depart="276.00" from="4472302" to="193465140"/>
    <trip id="277" depart="277.00" from="544549304#0" to="-314456033#1"/>
    <trip id="278" depart="278.00" from="16405957#1" to="-24944224"/>
    <trip id="279" depart="279.00" from="4293946" to="4082014#0"/>
    <trip id="280" depart="280.00" from="-24911190#0" to="502174127#2"/>
    <trip id="281" depart="281.00" from="27245904#3" to="-643134324#1"/>
    <trip id="282" depart="282.00" from="502174127#1" to="330448966"/>
    <trip id="283" depart="283.00" from="192005606" to="-642913230#8"/>
    <trip id="284" depart="284.00" from="4293992#2" to="-319899941#0"/>
    <trip id="285" depart="285.00" from="-24931213" to="190627544#1"/>
    <trip id="286" depart="286.00" from="8506275#1" to="569385773"/>
    <trip id="287" depart="287.00" from="17045774" to="4294007#0"/>
    <trip id="288" depart="288.00" from="24654957#1" to="14163843#0"/>
    <trip id="289" depart="289.00" from="-365158944#4" to="69114043#0"/>
    <trip id="290" depart="290.00" from="24931206#2" to="64941056#3"/>
    <trip id="291" depart="291.00" from="488561499#0" to="24027327#5"/>
    <trip id="292" depart="292.00" from="4293992#11" to="31544817#2"/>
    <trip id="293" depart="293.00" from="26588610#5" to="4942526#2"/>
    <trip id="294" depart="294.00" from="68907539#2" to="14163843#0"/>
    <trip id="295" depart="295.00" from="314456040#1" to="34382673"/>
    <trip id="296" depart="296.00" from="4293996#1" to="24911264#0"/>
    <trip id="297" depart="297.00" from="27465317#0" to="161357555#5"/>
    <trip id="298" depart="298.00" from="4082043#1" to="4293992#10"/>
    <trip id="299" depart="299.00" from="-24792837" to="164047642#5"/>
    <trip id="300" depart="300.00" from="193465143" to="-31544817#2"/>
    <trip id="301" depart="301.00" from="17067973#1" to="68995797#0"/>
    <trip id="302" depart="302.00" from="24911219#1" to="31544800#0"/>
    <trip id="303" depart="303.00" from="4942527" to="331135219"/>
    <trip id="304" depart="304.00" from="4450686#5" to="553772533#1"/>
    <trip id="305" depart="305.00" from="51498241#2" to="294804941#0"/>
    <trip id="306" depart="306.00" from="-561060586" to="365158935#1"/>
    <trip id="307" depart="307.00" from="14163843#1" to="294804941#3"/>
    <trip id="308" depart="308.00" from="5103395#2" to="522266410"/>
    <trip id="309" depart="309.00" from="24944221#0" to="-4293992#0"/>
    <trip id="310" depart="310.00" from="-642910715#4" to="4082041"/>
    <trip id="311" depart="311.00" from="27245956#4" to="4444183#1"/>
    <trip id="312" depart="312.00" from="4293992#15" to="-70736941#2"/>
    <trip id="313" depart="313.00" from="28604238" to="68904241#1"/>
    <trip id="314" depart="314.00" from="5096959#0" to="543476237#5"/>
    <trip id="315" depart="315.00" from="4293992#0" to="68986688#2"/>
    <trip id="316" depart="316.00" from="161357559" to="-164047642#5"/>
    <trip id="317" depart="317.00" from="522266410" to="5096871"/>
    <trip id="318" depart="318.00" from="68904241#1" to="642727566"/>
    <trip id="319" depart="319.00" from="314456040#1" to="24841340"/>
    <trip id="320" depart="320.00" from="71505096#4" to="-197336186#1"/>
    <trip id="321" depart="321.00" from="-4293992#17" to="26589107#0"/>
    <trip id="322" depart="322.00" from="403892253#2" to="-24944224"/>
    <trip id="323" depart="323.00" from="4293993" to="4450686#7"/>
    <trip id="324" depart="324.00" from="68986688#5" to="-24027319#2"/>
    <trip id="325" depart="325.00" from="-24792837" to="270569690#0"/>
    <trip id="326" depart="326.00" from="69325369#3" to="-4293992#3"/>
    <trip id="327" depart="327.00" from="488561502#1" to="80303455#3"/>
    <trip id="328" depart="328.00" from="68986688#3" to="-314456033#4"/>
    <trip id="329" depart="329.00" from="24911264#0" to="-314456032#3"/>
    <trip id="330" depart="330.00" from="-366984752#3" to="-642913230#5"/>
    <trip id="331" depart="331.00" from="-4293939" to="-24944224"/>
    <trip id="332" depart="332.00" from="522266410" to="24932752"/>
    <trip id="333" depart="333.00" from="39779274" to="71505096#6"/>
    <trip id="334" depart="334.00" from="5096872#6" to="8506275#0"/>
    <trip id="335" depart="335.00" from="70223332#1" to="28228767#2"/>
    <trip id="336" depart="336.00" from="643134324#2" to="4293993"/>
    <trip id="337" depart="337.00" from="314456033#3" to="-27245956#3"/>
    <trip id="338" depart="338.00" from="31544817#3" to="161357555#4"/>
    <trip id="339" depart="339.00" from="-4444183#0" to="4444183#0"/>
    <trip id="340" depart="340.00" from="488561509#1" to="-642910715#3"/>
    <trip id="341" depart="341.00" from="503103509#1" to="164047642#5"/>
    <trip id="342" depart="342.00" from="365158935#1" to="161357555#4"/>
    <trip id="343" depart="343.00" from="642913230#5" to="4941938#3"/>
    <trip id="344" depart="344.00" from="-4293992#16" to="-41872851#2"/>
    <trip id="345" depart="345.00" from="41872851#2" to="4293947"/>
    <trip id="346" depart="346.00" from="4941938#3" to="69609792#1"/>
    <trip id="347" depart="347.00" from="14163843#1" to="31544813#1"/>
    <trip id="348" depart="348.00" from="26589107#3" to="5096930#2"/>
    <trip id="349" depart="349.00" from="-642913230#2" to="543476237#1"/>
    <trip id="350" depart="350.00" from="-365158944#2" to="-27245953"/>
    <trip id="351" depart="351.00" from="643131004#0" to="470987535#8"/>
    <trip id="352" depart="352.00" from="-564199960#2" to="-27245956#1"/>
    <trip id="353" depart="353.00" from="366984752#1" to="197336186#1"/>
    <trip id="354" depart="354.00" from="14163843#1" to="314456040#3"/>
    <trip id="355" depart="355.00" from="365158940#2" to="68907549#4"/>
    <trip id="356" depart="356.00" from="23819963#1" to="403892253#2"/>
    <trip id="357" depart="357.00" from="4472353#0" to="-564199962"/>
    <trip id="358" depart="358.00" from="24027202" to="185537045#0"/>
    <trip id="359" depart="359.00" from="5103394#1" to="-365158938#1"/>
    <trip id="360" depart="360.00" from="69325369#1" to="-314456033#3"/>
    <trip id="361" depart="361.00" from="4293992#7" to="-31544817#9"/>
    <trip id="362" depart="362.00" from="642898830#0" to="44864462#1"/>
    <trip id="363" depart="363.00" from="-28604180" to="4293992#15"/>
    <trip id="364" depart="364.00" from="25095051#3" to="488561493#3"/>
    <trip id="365" depart="365.00" from="4039896#0" to="41873007#3"/>
    <trip id="366" depart="366.00" from="62164880#6" to="80303455#2"/>
    <trip id="367" depart="367.00" from="314456032#2" to="68907539#3"/>
    <trip id="368" depart="368.00" from="-4082014#1" to="488561493#3"/>
    <trip id="369" depart="369.00" from="4941938#0" to="4942516#2"/>
    <trip id="370" depart="370.00" from="642898830#0" to="395003092#0"/>
    <trip id="371" depart="371.00" from="71505096#5" to="560720450#3"/>
    <trip id="372" depart="372.00" from="-330436158#1" to="4294007#3"/>
    <trip id="373" depart="373.00" from="488561496" to="470987535#8"/>
    <trip id="374" depart="374.00" from="161357555#3" to="24911231#1"/>
    <trip id="375" depart="375.00" from="395003092#5" to="24027327#2"/>
    <trip id="376" depart="376.00" from="-69167386#0" to="642910715#1"/>
    <trip id="377" depart="377.00" from="-4293992#15" to="71505096#0"/>
    <trip id="378" depart="378.00" from="32879779#0" to="4444183#1"/>
    <trip id="379" depart="379.00" from="-71505096#4" to="64941056#0"/>
    <trip id="380" depart="380.00" from="4293940#1" to="80303455#3"/>
    <trip id="381" depart="381.00" from="5096943" to="24027216#1"/>
    <trip id="382" depart="382.00" from="4294014#2" to="5096943"/>
    <trip id="383" depart="383.00" from="28604003" to="5096930#6"/>
    <trip id="384" depart="384.00" from="4293941#1" to="68907549#4"/>
    <trip id="385" depart="385.00" from="332682194" to="27245904#5"/>
    <trip id="386" depart="386.00" from="-24944197#1" to="23819963#1"/>
    <trip id="387" depart="387.00" from="184551793#0" to="-27245956#4"/>
    <trip id="388" depart="388.00" from="365158944#0" to="566475380#0"/>
    <trip id="389" depart="389.00" from="-642915295#0" to="4293992#9"/>
    <trip id="390" depart="390.00" from="27245904#5" to="4472298"/>
    <trip id="391" depart="391.00" from="51498241#2" to="17067973#0"/>
    <trip id="392" depart="392.00" from="4293992#8" to="68995797#2"/>
    <trip id="393" depart="393.00" from="22605479" to="4450686#11"/>
    <trip id="394" depart="394.00" from="4294035" to="-564199960#7"/>
    <trip id="395" depart="395.00" from="522266410" to="-31544817#7"/>
    <trip id="396" depart="396.00" from="-69167386#0" to="4941938#6"/>
    <trip id="397" depart="397.00" from="395003092#0" to="23819963#3"/>
    <trip id="398" depart="398.00" from="365158935#1" to="-71505096#2"/>
    <trip id="399" depart="399.00" from="4293996#3" to="14163843#0"/>
    <trip id="400" depart="400.00" from="-569385773" to="-502174127#2"/>
    <trip id="401" depart="401.00" from="-366984752#3" to="32879779#1"/>
    <trip id="402" depart="402.00" from="25095051#0" to="25095073#1"/>
    <trip id="403" depart="403.00" from="543476237#5" to="-161357555#8"/>
    <trip id="404" depart="404.00" from="69325369#1" to="26589107#1"/>
    <trip id="405" depart="405.00" from="403892253#1" to="331135219"/>
    <trip id="406" depart="406.00" from="69325369#6" to="-25034670"/>
    <trip id="407" depart="407.00" from="-642898830#1" to="8412454"/>
    <trip id="408" depart="408.00" from="4293992#2" to="-4039896#4"/>
    <trip id="409" depart="409.00" from="31544817#2" to="470987535#3"/>
    <trip id="410" depart="410.00" from="5096875#2" to="630455864#1"/>
    <trip id="411" depart="411.00" from="17067845#0" to="70736939"/>
    <trip id="412" depart="412.00" from="470987535#3" to="24792898#0"/>
    <trip id="413" depart="413.00" from="26588964" to="642913230#3"/>
    <trip id="414" depart="414.00" from="26588610#6" to="470987535#1"/>
    <trip id="415" depart="415.00" from="70192450" to="4444157#5"/>
    <trip id="416" depart="416.00" from="4293992#12" to="-626668696#2"/>
    <trip id="417" depart="417.00" from="27245904#2" to="79649932"/>
    <trip id="418" depart="418.00" from="-71505096#6" to="-28604061"/>